# generated using pymatgen
data_MoS2
_symmetry_space_group_name_H-M   'P 1'
_cell_length_a   52.51402664
_cell_length_b   52.51402679
_cell_length_c   29.99999809
_cell_angle_alpha   90.00000000
_cell_angle_beta   90.00000000
_cell_angle_gamma   119.99999991
_symmetry_Int_Tables_number   1
_chemical_formula_structural   MoS2
_chemical_formula_sum   'Mo542 S1084'
_cell_volume   71647.74079186
_cell_formula_units_Z   542
loop_
 _symmetry_equiv_pos_site_id
 _symmetry_equiv_pos_as_xyz
  1  'x, y, z'
loop_
 _atom_site_type_symbol
 _atom_site_label
 _atom_site_symmetry_multiplicity
 _atom_site_fract_x
 _atom_site_fract_y
 _atom_site_fract_z
 _atom_site_occupancy
  Mo  Mo0  1  0.91336056  0.41018936  0.39486595  1
  Mo  Mo1  1  0.94727783  0.48077468  0.39483299  1
  Mo  Mo2  1  0.98120111  0.55137129  0.39441483  1
  Mo  Mo3  1  0.01498506  0.62193284  0.39377002  1
  Mo  Mo4  1  0.04853044  0.69238573  0.39296261  1
  Mo  Mo5  1  0.08182865  0.76272554  0.39197797  1
  Mo  Mo6  1  0.11487911  0.83295807  0.39084062  1
  Mo  Mo7  1  0.14778620  0.90313323  0.38989105  1
  Mo  Mo8  1  0.18057967  0.97327920  0.38937492  1
  Mo  Mo9  1  0.21335217  0.04339357  0.38938347  1
  Mo  Mo10  1  0.24615197  0.11348727  0.38992830  1
  Mo  Mo11  1  0.27897331  0.18351133  0.39085470  1
  Mo  Mo12  1  0.31187277  0.25346469  0.39194052  1
  Mo  Mo13  1  0.34489845  0.32330633  0.39294446  1
  Mo  Mo14  1  0.37806540  0.39304395  0.39377291  1
  Mo  Mo15  1  0.41139280  0.46272003  0.39446824  1
  Mo  Mo16  1  0.44479386  0.53236516  0.39499651  1
  Mo  Mo17  1  0.47820853  0.60201037  0.39520164  1
  Mo  Mo18  1  0.51159451  0.67170766  0.39500271  1
  Mo  Mo19  1  0.54489690  0.74151090  0.39450251  1
  Mo  Mo20  1  0.57802127  0.81141320  0.39386145  1
  Mo  Mo21  1  0.61099012  0.88141314  0.39331493  1
  Mo  Mo22  1  0.64386136  0.95147959  0.39295870  1
  Mo  Mo23  1  0.67668332  0.02159020  0.39294125  1
  Mo  Mo24  1  0.70957718  0.09175677  0.39325990  1
  Mo  Mo25  1  0.74260307  0.16198049  0.39389206  1
  Mo  Mo26  1  0.77591201  0.23226922  0.39461240  1
  Mo  Mo27  1  0.80945298  0.30262627  0.39522053  1
  Mo  Mo28  1  0.84322851  0.37309098  0.39552891  1
  Mo  Mo29  1  0.87711604  0.44361089  0.39539321  1
  Mo  Mo30  1  0.91102843  0.51415448  0.39480005  1
  Mo  Mo31  1  0.94484143  0.58466726  0.39394499  1
  Mo  Mo32  1  0.94965128  0.37681040  0.39410953  1
  Mo  Mo33  1  0.98350399  0.44739358  0.39454758  1
  Mo  Mo34  1  0.01743178  0.51800529  0.39468456  1
  Mo  Mo35  1  0.05133174  0.58860656  0.39446401  1
  Mo  Mo36  1  0.08507847  0.65914202  0.39398240  1
  Mo  Mo37  1  0.11860129  0.72957867  0.39331801  1
  Mo  Mo38  1  0.15186232  0.79989735  0.39250802  1
  Mo  Mo39  1  0.18490686  0.87011420  0.39165210  1
  Mo  Mo40  1  0.21775982  0.94027476  0.39102268  1
  Mo  Mo41  1  0.25057687  0.01042193  0.39079945  1
  Mo  Mo42  1  0.28337375  0.08051735  0.39106308  1
  Mo  Mo43  1  0.31623724  0.15057913  0.39169378  1
  Mo  Mo44  1  0.34915116  0.22055088  0.39249251  1
  Mo  Mo45  1  0.38216746  0.29040741  0.39326324  1
  Mo  Mo46  1  0.41533250  0.36016831  0.39394953  1
  Mo  Mo47  1  0.44862853  0.42982627  0.39441982  1
  Mo  Mo48  1  0.48199590  0.49942585  0.39469051  1
  Mo  Mo49  1  0.51537153  0.56902077  0.39468256  1
  Mo  Mo50  1  0.54871810  0.63865512  0.39437980  1
  Mo  Mo51  1  0.58195600  0.70836504  0.39382791  1
  Mo  Mo52  1  0.61507038  0.77820586  0.39315833  1
  Mo  Mo53  1  0.64804914  0.84815429  0.39250615  1
  Mo  Mo54  1  0.68090514  0.91818451  0.39197292  1
  Mo  Mo55  1  0.71372570  0.98827713  0.39176136  1
  Mo  Mo56  1  0.74652239  0.05840639  0.39193890  1
  Mo  Mo57  1  0.77943308  0.12859819  0.39249159  1
  Mo  Mo58  1  0.81253732  0.19884262  0.39323018  1
  Mo  Mo59  1  0.84591930  0.26919711  0.39394702  1
  Mo  Mo60  1  0.87954290  0.33964372  0.39453948  1
  Mo  Mo61  1  0.98609266  0.34354417  0.39322871  1
  Mo  Mo62  1  0.01978653  0.41405702  0.39404579  1
  Mo  Mo63  1  0.05365033  0.48463170  0.39467611  1
  Mo  Mo64  1  0.08757494  0.55520759  0.39499009  1
  Mo  Mo65  1  0.12143740  0.62576302  0.39490801  1
  Mo  Mo66  1  0.15511960  0.69623637  0.39448731  1
  Mo  Mo67  1  0.18860587  0.76660940  0.39386110  1
  Mo  Mo68  1  0.22181387  0.83686600  0.39315748  1
  Mo  Mo69  1  0.25481287  0.90706557  0.39254232  1
  Mo  Mo70  1  0.28765735  0.97720877  0.39221172  1
  Mo  Mo71  1  0.32048232  0.04733299  0.39224637  1
  Mo  Mo72  1  0.35334763  0.11741828  0.39264907  1
  Mo  Mo73  1  0.38629041  0.18744568  0.39323072  1
  Mo  Mo74  1  0.41936130  0.25737772  0.39389527  1
  Mo  Mo75  1  0.45253598  0.32717819  0.39446007  1
  Mo  Mo76  1  0.48584623  0.39687224  0.39480654  1
  Mo  Mo77  1  0.51922704  0.46650453  0.39483906  1
  Mo  Mo78  1  0.55261013  0.53611401  0.39455334  1
  Mo  Mo79  1  0.58594739  0.60573582  0.39405056  1
  Mo  Mo80  1  0.61918581  0.67541764  0.39337046  1
  Mo  Mo81  1  0.65226845  0.74520452  0.39254379  1
  Mo  Mo82  1  0.68522288  0.81511026  0.39165296  1
  Mo  Mo83  1  0.71808991  0.88513595  0.39083763  1
  Mo  Mo84  1  0.75088985  0.95520492  0.39034751  1
  Mo  Mo85  1  0.78366884  0.02532165  0.39034175  1
  Mo  Mo86  1  0.81647492  0.09546041  0.39085308  1
  Mo  Mo87  1  0.84940603  0.16565526  0.39169479  1
  Mo  Mo88  1  0.88256886  0.23592606  0.39265092  1
  Mo  Mo89  1  0.91598836  0.30631230  0.39345680  1
  Mo  Mo90  1  0.02278629  0.31043968  0.39221273  1
  Mo  Mo91  1  0.05622784  0.38081776  0.39336719  1
  Mo  Mo92  1  0.08993597  0.45128541  0.39437398  1
  Mo  Mo93  1  0.12380483  0.52179495  0.39519382  1
  Mo  Mo94  1  0.15769286  0.59229749  0.39564784  1
  Mo  Mo95  1  0.19150196  0.66275159  0.39561354  1
  Mo  Mo96  1  0.22511566  0.73310218  0.39516410  1
  Mo  Mo97  1  0.25851192  0.80338865  0.39449993  1
  Mo  Mo98  1  0.29165529  0.87359417  0.39382540  1
  Mo  Mo99  1  0.32459753  0.94377034  0.39336789  1
  Mo  Mo100  1  0.35745117  0.01390192  0.39322789  1
  Mo  Mo101  1  0.39031613  0.08400187  0.39345569  1
  Mo  Mo102  1  0.42326437  0.15406639  0.39394715  1
  Mo  Mo103  1  0.45634009  0.22406934  0.39461472  1
  Mo  Mo104  1  0.48958679  0.29399666  0.39521932  1
  Mo  Mo105  1  0.52296182  0.36380208  0.39552341  1
  Mo  Mo106  1  0.55639068  0.43350823  0.39540039  1
  Mo  Mo107  1  0.58981493  0.50317738  0.39487167  1
  Mo  Mo108  1  0.62319576  0.57284994  0.39411392  1
  Mo  Mo109  1  0.65646100  0.64255877  0.39323129  1
  Mo  Mo110  1  0.68956447  0.71235669  0.39221401  1
  Mo  Mo111  1  0.72252968  0.78225580  0.39102550  1
  Mo  Mo112  1  0.75535996  0.85222872  0.38989143  1
  Mo  Mo113  1  0.78815646  0.92228561  0.38911100  1
  Mo  Mo114  1  0.82091725  0.99238302  0.38884324  1
  Mo  Mo115  1  0.85368014  0.06250598  0.38911908  1
  Mo  Mo116  1  0.88650001  0.13266099  0.38992957  1
  Mo  Mo117  1  0.91947104  0.20285083  0.39106737  1
  Mo  Mo118  1  0.95265832  0.27314367  0.39224920  1
  Mo  Mo119  1  0.05971920  0.27747288  0.39102299  1
  Mo  Mo120  1  0.09293162  0.34773477  0.39254013  1
  Mo  Mo121  1  0.12640698  0.41804816  0.39382339  1
  Mo  Mo122  1  0.16011495  0.48841134  0.39499517  1
  Mo  Mo123  1  0.19394918  0.55878823  0.39597116  1
  Mo  Mo124  1  0.22778616  0.62915354  0.39642979  1
  Mo  Mo125  1  0.26150441  0.69946270  0.39630911  1
  Mo  Mo126  1  0.29503392  0.76970127  0.39574435  1
  Mo  Mo127  1  0.32831484  0.83989119  0.39499940  1
  Mo  Mo128  1  0.36136228  0.91006693  0.39437621  1
  Mo  Mo129  1  0.39427408  0.98021206  0.39404620  1
  Mo  Mo130  1  0.42715352  0.05034311  0.39411004  1
  Mo  Mo131  1  0.46008882  0.12044762  0.39454088  1
  Mo  Mo132  1  0.49315722  0.19053256  0.39522256  1
  Mo  Mo133  1  0.52642165  0.26055540  0.39592307  1
  Mo  Mo134  1  0.55985854  0.33049538  0.39634949  1
  Mo  Mo135  1  0.59339584  0.40035519  0.39623225  1
  Mo  Mo136  1  0.62691126  0.47014468  0.39553330  1
  Mo  Mo137  1  0.66036180  0.53991000  0.39454281  1
  Mo  Mo138  1  0.69369477  0.60968950  0.39345798  1
  Mo  Mo139  1  0.72686216  0.67952772  0.39224831  1
  Mo  Mo140  1  0.75985815  0.74943564  0.39080317  1
  Mo  Mo141  1  0.79271252  0.81943314  0.38937647  1
  Mo  Mo142  1  0.82548478  0.88946973  0.38829695  1
  Mo  Mo143  1  0.85823562  0.95955313  0.38775179  1
  Mo  Mo144  1  0.89098209  0.02966847  0.38775024  1
  Mo  Mo145  1  0.92373468  0.09979816  0.38831710  1
  Mo  Mo146  1  0.95659598  0.16995146  0.38938674  1
  Mo  Mo147  1  0.98956996  0.24014632  0.39080387  1
  Mo  Mo148  1  0.09686049  0.24463966  0.38989038  1
  Mo  Mo149  1  0.12988137  0.31477844  0.39164943  1
  Mo  Mo150  1  0.16313278  0.38493346  0.39315490  1
  Mo  Mo151  1  0.19661480  0.45510967  0.39449666  1
  Mo  Mo152  1  0.23030678  0.52532203  0.39573929  1
  Mo  Mo153  1  0.26409479  0.59554840  0.39663820  1
  Mo  Mo154  1  0.29785559  0.66575619  0.39691858  1
  Mo  Mo155  1  0.33147292  0.73591901  0.39664277  1
  Mo  Mo156  1  0.36485994  0.80606272  0.39597768  1
  Mo  Mo157  1  0.39800789  0.87620349  0.39519808  1
  Mo  Mo158  1  0.43099062  0.94635264  0.39467709  1
  Mo  Mo159  1  0.46388792  0.01649398  0.39454800  1
  Mo  Mo160  1  0.49681761  0.08663297  0.39486827  1
  Mo  Mo161  1  0.52984655  0.15676058  0.39553327  1
  Mo  Mo162  1  0.56306342  0.22686751  0.39633865  1
  Mo  Mo163  1  0.59652653  0.29694398  0.39688437  1
  Mo  Mo164  1  0.63014532  0.36696009  0.39691730  1
  Mo  Mo165  1  0.66379890  0.43692542  0.39633556  1
  Mo  Mo166  1  0.69737538  0.50683745  0.39522053  1
  Mo  Mo167  1  0.73080772  0.57673623  0.39394674  1
  Mo  Mo168  1  0.76408089  0.64665799  0.39264850  1
  Mo  Mo169  1  0.79715563  0.71663444  0.39106486  1
  Mo  Mo170  1  0.83005318  0.78665677  0.38938611  1
  Mo  Mo171  1  0.86286403  0.85670997  0.38803685  1
  Mo  Mo172  1  0.89560202  0.92678271  0.38718642  1
  Mo  Mo173  1  0.92832644  0.99688213  0.38688955  1
  Mo  Mo174  1  0.96106046  0.06701295  0.38719494  1
  Mo  Mo175  1  0.99383940  0.13713809  0.38803834  1
  Mo  Mo176  1  0.02671257  0.20728936  0.38937727  1
  Mo  Mo177  1  0.13412047  0.21183921  0.38911282  1
  Mo  Mo178  1  0.16703741  0.28190648  0.39083722  1
  Mo  Mo179  1  0.20009948  0.35195037  0.39250430  1
  Mo  Mo180  1  0.23339109  0.42198289  0.39385868  1
  Mo  Mo181  1  0.26690249  0.49200267  0.39516095  1
  Mo  Mo182  1  0.30054620  0.56203540  0.39630692  1
  Mo  Mo183  1  0.33425844  0.63209778  0.39691940  1
  Mo  Mo184  1  0.36792024  0.70216251  0.39692118  1
  Mo  Mo185  1  0.40138812  0.77222989  0.39643529  1
  Mo  Mo186  1  0.43462403  0.84231957  0.39565343  1
  Mo  Mo187  1  0.46764658  0.91243224  0.39499238  1
  Mo  Mo188  1  0.50057714  0.98256982  0.39468456  1
  Mo  Mo189  1  0.53348888  0.05271867  0.39483397  1
  Mo  Mo190  1  0.56647937  0.12287618  0.39539759  1
  Mo  Mo191  1  0.59963070  0.19303472  0.39623142  1
  Mo  Mo192  1  0.63302490  0.26318214  0.39691778  1
  Mo  Mo193  1  0.66665755  0.33332920  0.39717546  1
  Mo  Mo194  1  0.70040893  0.40346237  0.39688014  1
  Mo  Mo195  1  0.73413140  0.47357123  0.39591757  1
  Mo  Mo196  1  0.76773171  0.54365680  0.39461068  1
  Mo  Mo197  1  0.80116210  0.61371025  0.39322748  1
  Mo  Mo198  1  0.83435240  0.68376622  0.39169203  1
  Mo  Mo199  1  0.86734647  0.75385263  0.38992964  1
  Mo  Mo200  1  0.90020732  0.82394693  0.38831818  1
  Mo  Mo201  1  0.93299051  0.89405348  0.38719383  1
  Mo  Mo202  1  0.96572852  0.96416271  0.38659486  1
  Mo  Mo203  1  0.99843429  0.03427356  0.38659502  1
  Mo  Mo204  1  0.03117680  0.10439851  0.38718731  1
  Mo  Mo205  1  0.06397756  0.17451459  0.38829892  1
  Mo  Mo206  1  0.17145699  0.17907502  0.38884483  1
  Mo  Mo207  1  0.20430564  0.24910235  0.39034976  1
  Mo  Mo208  1  0.23727093  0.31908903  0.39197381  1
  Mo  Mo209  1  0.27041879  0.38900890  0.39331550  1
  Mo  Mo210  1  0.30376454  0.45887224  0.39448648  1
  Mo  Mo211  1  0.33725259  0.52874342  0.39561436  1
  Mo  Mo212  1  0.37085479  0.59862957  0.39643424  1
  Mo  Mo213  1  0.40446481  0.66854756  0.39664414  1
  Mo  Mo214  1  0.43797913  0.73851524  0.39631258  1
  Mo  Mo215  1  0.47126877  0.80851392  0.39561700  1
  Mo  Mo216  1  0.50434124  0.87857341  0.39490995  1
  Mo  Mo217  1  0.53728315  0.94867400  0.39446439  1
  Mo  Mo218  1  0.57016794  0.01879983  0.39441470  1
  Mo  Mo219  1  0.60311390  0.08896809  0.39480186  1
  Mo  Mo220  1  0.63618061  0.15915373  0.39551985  1
  Mo  Mo221  1  0.66948715  0.22936046  0.39634694  1
  Mo  Mo222  1  0.70304014  0.29958356  0.39688218  1
  Mo  Mo223  1  0.73680542  0.36984754  0.39691400  1
  Mo  Mo224  1  0.77063296  0.44013661  0.39634243  1
  Mo  Mo225  1  0.80441112  0.51041045  0.39521248  1
  Mo  Mo226  1  0.83802104  0.58063758  0.39389056  1
  Mo  Mo227  1  0.87140789  0.65084968  0.39248952  1
  Mo  Mo228  1  0.90454899  0.72102895  0.39085397  1
  Mo  Mo229  1  0.93750330  0.79118616  0.38912153  1
  Mo  Mo230  1  0.97033891  0.86132156  0.38775132  1
  Mo  Mo231  1  0.00312321  0.93144740  0.38688939  1
  Mo  Mo232  1  0.03584056  0.00156555  0.38659505  1
  Mo  Mo233  1  0.06855329  0.07167191  0.38688862  1
  Mo  Mo234  1  0.10131133  0.14176106  0.38775323  1
  Mo  Mo235  1  0.20881604  0.14630875  0.38911978  1
  Mo  Mo236  1  0.24164215  0.21631998  0.39034366  1
  Mo  Mo237  1  0.27454229  0.28626466  0.39176308  1
  Mo  Mo238  1  0.30761126  0.35613259  0.39296156  1
  Mo  Mo239  1  0.34085609  0.42592601  0.39398339  1
  Mo  Mo240  1  0.37423776  0.49566764  0.39491103  1
  Mo  Mo241  1  0.40770586  0.56539203  0.39565423  1
  Mo  Mo242  1  0.44121917  0.63516122  0.39597987  1
  Mo  Mo243  1  0.47468792  0.70498857  0.39574753  1
  Mo  Mo244  1  0.50800648  0.77490488  0.39516607  1
  Mo  Mo245  1  0.54113344  0.84489617  0.39448788  1
  Mo  Mo246  1  0.57407493  0.91493226  0.39398145  1
  Mo  Mo247  1  0.60695088  0.98502094  0.39376900  1
  Mo  Mo248  1  0.63981943  0.05516017  0.39394521  1
  Mo  Mo249  1  0.67280377  0.12535221  0.39445574  1
  Mo  Mo250  1  0.70598314  0.19558645  0.39521541  1
  Mo  Mo251  1  0.73942664  0.26586566  0.39592021  1
  Mo  Mo252  1  0.77311802  0.33619897  0.39633432  1
  Mo  Mo253  1  0.80695459  0.40660335  0.39622589  1
  Mo  Mo254  1  0.84084056  0.47703820  0.39551604  1
  Mo  Mo255  1  0.87464667  0.54746412  0.39445428  1
  Mo  Mo256  1  0.90824669  0.61783262  0.39325952  1
  Mo  Mo257  1  0.94160141  0.68812773  0.39194008  1
  Mo  Mo258  1  0.97468928  0.75835845  0.39034611  1
  Mo  Mo259  1  0.00762786  0.82854276  0.38884684  1
  Mo  Mo260  1  0.04045624  0.89868680  0.38775402  1
  Mo  Mo261  1  0.07322418  0.96881993  0.38718820  1
  Mo  Mo262  1  0.10595072  0.03893472  0.38719402  1
  Mo  Mo263  1  0.13868010  0.10901136  0.38775021  1
  Mo  Mo264  1  0.97841587  0.65510055  0.39294366  1
  Mo  Mo265  1  0.01173288  0.72545651  0.39176660  1
  Mo  Mo266  1  0.04480777  0.79569265  0.39035348  1
  Mo  Mo267  1  0.07772739  0.86587587  0.38911332  1
  Mo  Mo268  1  0.11054184  0.93601689  0.38829806  1
  Mo  Mo269  1  0.14329841  0.00615280  0.38803669  1
  Mo  Mo270  1  0.17605771  0.07625571  0.38831602  1
  Mo  Mo271  1  0.91243327  0.46764990  0.60526381  1
  Mo  Mo272  1  0.94867350  0.53728513  0.60572666  1
  Mo  Mo273  1  0.98502285  0.60695148  0.60635462  1
  Mo  Mo274  1  0.02159330  0.67668208  0.60716118  1
  Mo  Mo275  1  0.05840789  0.74652075  0.60818307  1
  Mo  Mo276  1  0.09545870  0.81647288  0.60928527  1
  Mo  Mo277  1  0.13265815  0.88649840  0.61020448  1
  Mo  Mo278  1  0.16995195  0.95659479  0.61074750  1
  Mo  Mo279  1  0.20728922  0.02670894  0.61076073  1
  Mo  Mo280  1  0.24463660  0.09685666  0.61024975  1
  Mo  Mo281  1  0.28190301  0.16703503  0.60929785  1
  Mo  Mo282  1  0.31908750  0.23727100  0.60814181  1
  Mo  Mo283  1  0.35613050  0.30761153  0.60713810  1
  Mo  Mo284  1  0.39303996  0.37806468  0.60635119  1
  Mo  Mo285  1  0.42982586  0.44862883  0.60576614  1
  Mo  Mo286  1  0.46650654  0.51922875  0.60539720  1
  Mo  Mo287  1  0.50317881  0.58981572  0.60536643  1
  Mo  Mo288  1  0.53990838  0.66036213  0.60564916  1
  Mo  Mo289  1  0.57673448  0.73080692  0.60619663  1
  Mo  Mo290  1  0.61370969  0.80115990  0.60688925  1
  Mo  Mo291  1  0.65084736  0.87140401  0.60762498  1
  Mo  Mo292  1  0.68812288  0.94159695  0.60818320  1
  Mo  Mo293  1  0.72544990  0.01172845  0.60835779  1
  Mo  Mo294  1  0.76272189  0.08182574  0.60813870  1
  Mo  Mo295  1  0.79989440  0.15185805  0.60760184  1
  Mo  Mo296  1  0.83686167  0.22180922  0.60695881  1
  Mo  Mo297  1  0.87359028  0.29165251  0.60631413  1
  Mo  Mo298  1  0.91006443  0.36136245  0.60580353  1
  Mo  Mo299  1  0.94635221  0.43099198  0.60553911  1
  Mo  Mo300  1  0.98256888  0.50057747  0.60553675  1
  Mo  Mo301  1  0.01879926  0.57016497  0.60577079  1
  Mo  Mo302  1  0.05516198  0.63981706  0.60619562  1
  Mo  Mo303  1  0.09176002  0.70957626  0.60685410  1
  Mo  Mo304  1  0.12859905  0.77943352  0.60762174  1
  Mo  Mo305  1  0.16565322  0.84940728  0.60842753  1
  Mo  Mo306  1  0.20285119  0.91947172  0.60906541  1
  Mo  Mo307  1  0.24014907  0.98956988  0.60933848  1
  Mo  Mo308  1  0.27747373  0.05971866  0.60911710  1
  Mo  Mo309  1  0.31477437  0.12988042  0.60847725  1
  Mo  Mo310  1  0.35194698  0.20009921  0.60760426  1
  Mo  Mo311  1  0.38900694  0.27041768  0.60679465  1
  Mo  Mo312  1  0.42592277  0.34085337  0.60615842  1
  Mo  Mo313  1  0.46271467  0.41138833  0.60572291  1
  Mo  Mo314  1  0.49942228  0.48199253  0.60553071  1
  Mo  Mo315  1  0.53611450  0.55260872  0.60564751  1
  Mo  Mo316  1  0.57284953  0.62319506  0.60603788  1
  Mo  Mo317  1  0.60968760  0.69369273  0.60665719  1
  Mo  Mo318  1  0.64665703  0.76407885  0.60746082  1
  Mo  Mo319  1  0.68376739  0.83435105  0.60843147  1
  Mo  Mo320  1  0.72102664  0.90454743  0.60928571  1
  Mo  Mo321  1  0.75835375  0.97468879  0.60980108  1
  Mo  Mo322  1  0.79568824  0.04480628  0.60979103  1
  Mo  Mo323  1  0.83295697  0.11487658  0.60929557  1
  Mo  Mo324  1  0.87011199  0.18490251  0.60847572  1
  Mo  Mo325  1  0.90705926  0.25480888  0.60757170  1
  Mo  Mo326  1  0.94376467  0.32459490  0.60674576  1
  Mo  Mo327  1  0.98020865  0.39427152  0.60610025  1
  Mo  Mo328  1  0.01649084  0.46388419  0.60565310  1
  Mo  Mo329  1  0.05271713  0.53348356  0.60540184  1
  Mo  Mo330  1  0.08896665  0.60310914  0.60542282  1
  Mo  Mo331  1  0.12535239  0.67280028  0.60572577  1
  Mo  Mo332  1  0.16198123  0.74260276  0.60624800  1
  Mo  Mo333  1  0.19884167  0.81253786  0.60688550  1
  Mo  Mo334  1  0.23592464  0.88256874  0.60745758  1
  Mo  Mo335  1  0.27314566  0.95265876  0.60786168  1
  Mo  Mo336  1  0.31044217  0.02278840  0.60790009  1
  Mo  Mo337  1  0.34773531  0.09293497  0.60757285  1
  Mo  Mo338  1  0.38493112  0.16313401  0.60696014  1
  Mo  Mo339  1  0.42198132  0.23339018  0.60627757  1
  Mo  Mo340  1  0.45887099  0.30376091  0.60569583  1
  Mo  Mo341  1  0.49566438  0.37423325  0.60532459  1
  Mo  Mo342  1  0.53235854  0.44478964  0.60525943  1
  Mo  Mo343  1  0.56901621  0.51536771  0.60553332  1
  Mo  Mo344  1  0.60573511  0.58594453  0.60609529  1
  Mo  Mo345  1  0.64255733  0.65645667  0.60687222  1
  Mo  Mo346  1  0.67952395  0.72685663  0.60786308  1
  Mo  Mo347  1  0.71663249  0.79715165  0.60906885  1
  Mo  Mo348  1  0.75385192  0.86734576  0.61020556  1
  Mo  Mo349  1  0.79118294  0.93750331  0.61100671  1
  Mo  Mo350  1  0.82853772  0.00762700  0.61127965  1
  Mo  Mo351  1  0.86587464  0.07772633  0.61101523  1
  Mo  Mo352  1  0.90313353  0.14778538  0.61025026  1
  Mo  Mo353  1  0.94027207  0.21775974  0.60911882  1
  Mo  Mo354  1  0.97720373  0.28765640  0.60790237  1
  Mo  Mo355  1  0.01389756  0.35744911  0.60687628  1
  Mo  Mo356  1  0.05034148  0.42715061  0.60604201  1
  Mo  Mo357  1  0.08663101  0.49681297  0.60536948  1
  Mo  Mo358  1  0.12287317  0.56647491  0.60489137  1
  Mo  Mo359  1  0.15915225  0.63617725  0.60475722  1
  Mo  Mo360  1  0.19558596  0.70598162  0.60501891  1
  Mo  Mo361  1  0.23226812  0.77591034  0.60557414  1
  Mo  Mo362  1  0.26919476  0.84591732  0.60619549  1
  Mo  Mo363  1  0.30631093  0.91598738  0.60665770  1
  Mo  Mo364  1  0.34354495  0.98609426  0.60687444  1
  Mo  Mo365  1  0.38081919  0.05623080  0.60674538  1
  Mo  Mo366  1  0.41804752  0.12640814  0.60631514  1
  Mo  Mo367  1  0.45510891  0.19661416  0.60568406  1
  Mo  Mo368  1  0.49200330  0.26690046  0.60506971  1
  Mo  Mo369  1  0.52874200  0.33725036  0.60466376  1
  Mo  Mo370  1  0.56538779  0.40770406  0.60464863  1
  Mo  Mo371  1  0.60200470  0.47820496  0.60506221  1
  Mo  Mo372  1  0.63865173  0.54871350  0.60579901  1
  Mo  Mo373  1  0.67541690  0.61918077  0.60674201  1
  Mo  Mo374  1  0.71235401  0.68955833  0.60789894  1
  Mo  Mo375  1  0.74943062  0.75985167  0.60933969  1
  Mo  Mo376  1  0.78665306  0.83004897  0.61074884  1
  Mo  Mo377  1  0.82394397  0.90020476  0.61179031  1
  Mo  Mo378  1  0.86131683  0.97033563  0.61234834  1
  Mo  Mo379  1  0.89868256  0.04045261  0.61234669  1
  Mo  Mo380  1  0.93601580  0.11054094  0.61181358  1
  Mo  Mo381  1  0.97327941  0.18058151  0.61076448  1
  Mo  Mo382  1  0.01041873  0.25057814  0.60934446  1
  Mo  Mo383  1  0.04732959  0.32048243  0.60786594  1
  Mo  Mo384  1  0.08400021  0.39031448  0.60665986  1
  Mo  Mo385  1  0.12044810  0.46008710  0.60565100  1
  Mo  Mo386  1  0.15675875  0.52984333  0.60475423  1
  Mo  Mo387  1  0.19303155  0.59962841  0.60409264  1
  Mo  Mo388  1  0.22935940  0.66948638  0.60395963  1
  Mo  Mo389  1  0.26586511  0.73942500  0.60435903  1
  Mo  Mo390  1  0.30262474  0.80944959  0.60501954  1
  Mo  Mo391  1  0.33964015  0.87953995  0.60565151  1
  Mo  Mo392  1  0.37680773  0.94965052  0.60604169  1
  Mo  Mo393  1  0.41405640  0.01978755  0.60609974  1
  Mo  Mo394  1  0.45128656  0.08993601  0.60580493  1
  Mo  Mo395  1  0.48841005  0.16011253  0.60523361  1
  Mo  Mo396  1  0.52532033  0.23030421  0.60453323  1
  Mo  Mo397  1  0.56203674  0.30054597  0.60398945  1
  Mo  Mo398  1  0.59862800  0.37085485  0.60388156  1
  Mo  Mo399  1  0.63515767  0.44121840  0.60432591  1
  Mo  Mo400  1  0.67170449  0.51159248  0.60522624  1
  Mo  Mo401  1  0.70836470  0.58195314  0.60631044  1
  Mo  Mo402  1  0.74520507  0.65226418  0.60756891  1
  Mo  Mo403  1  0.78225218  0.72252502  0.60911469  1
  Mo  Mo404  1  0.81942747  0.79270882  0.61076168  1
  Mo  Mo405  1  0.85670713  0.86286041  0.61206885  1
  Mo  Mo406  1  0.89405073  0.93298549  0.61290109  1
  Mo  Mo407  1  0.93144248  0.00311689  0.61320856  1
  Mo  Mo408  1  0.96881449  0.07321985  0.61290751  1
  Mo  Mo409  1  0.00615018  0.14329733  0.61207000  1
  Mo  Mo410  1  0.04339118  0.21335202  0.61075214  1
  Mo  Mo411  1  0.08051344  0.28337185  0.60907139  1
  Mo  Mo412  1  0.11741545  0.35334486  0.60746076  1
  Mo  Mo413  1  0.15406569  0.42326268  0.60619631  1
  Mo  Mo414  1  0.19053339  0.49315781  0.60501802  1
  Mo  Mo415  1  0.22686642  0.56306523  0.60397139  1
  Mo  Mo416  1  0.26318107  0.63302620  0.60339467  1
  Mo  Mo417  1  0.29958348  0.70303968  0.60342506  1
  Mo  Mo418  1  0.33620048  0.77311649  0.60397584  1
  Mo  Mo419  1  0.37308824  0.84322790  0.60475811  1
  Mo  Mo420  1  0.41018527  0.91336020  0.60537139  1
  Mo  Mo421  1  0.44739151  0.98350474  0.60565291  1
  Mo  Mo422  1  0.48463196  0.05364842  0.60553955  1
  Mo  Mo423  1  0.52179517  0.12380159  0.60506996  1
  Mo  Mo424  1  0.55878581  0.19394521  0.60433436  1
  Mo  Mo425  1  0.59554601  0.26409250  0.60366539  1
  Mo  Mo426  1  0.63209777  0.33425812  0.60337541  1
  Mo  Mo427  1  0.66854588  0.40446427  0.60365941  1
  Mo  Mo428  1  0.70498587  0.47468644  0.60452535  1
  Mo  Mo429  1  0.74150908  0.54489419  0.60567847  1
  Mo  Mo430  1  0.77820753  0.61506914  0.60695639  1
  Mo  Mo431  1  0.81511127  0.68522320  0.60847337  1
  Mo  Mo432  1  0.85222587  0.75535919  0.61024854  1
  Mo  Mo433  1  0.88946677  0.82548251  0.61181333  1
  Mo  Mo434  1  0.92678316  0.89559878  0.61290828  1
  Mo  Mo435  1  0.96416109  0.96572420  0.61351062  1
  Mo  Mo436  1  0.00156094  0.03583820  0.61351062  1
  Mo  Mo437  1  0.03893051  0.10594947  0.61290128  1
  Mo  Mo438  1  0.07625417  0.17605684  0.61179241  1
  Mo  Mo439  1  0.11348530  0.24614888  0.61020709  1
  Mo  Mo440  1  0.15057463  0.31623227  0.60843001  1
  Mo  Mo441  1  0.18744211  0.38628727  0.60688627  1
  Mo  Mo442  1  0.22406830  0.45633917  0.60557268  1
  Mo  Mo443  1  0.26055444  0.52642144  0.60435636  1
  Mo  Mo444  1  0.29694161  0.59652563  0.60342239  1
  Mo  Mo445  1  0.33332763  0.66665617  0.60312281  1
  Mo  Mo446  1  0.36984821  0.73680360  0.60339881  1
  Mo  Mo447  1  0.40660267  0.80695519  0.60409849  1
  Mo  Mo448  1  0.44360786  0.87711651  0.60489557  1
  Mo  Mo449  1  0.48076942  0.94727699  0.60540292  1
  Mo  Mo450  1  0.51800512  0.01743043  0.60553663  1
  Mo  Mo451  1  0.55520840  0.08757149  0.60526604  1
  Mo  Mo452  1  0.59229618  0.15768943  0.60465518  1
  Mo  Mo453  1  0.62915051  0.22778353  0.60388632  1
  Mo  Mo454  1  0.66575375  0.29785495  0.60337662  1
  Mo  Mo455  1  0.70216057  0.36791744  0.60337395  1
  Mo  Mo456  1  0.73851204  0.43797471  0.60398424  1
  Mo  Mo457  1  0.77490057  0.50800258  0.60506481  1
  Mo  Mo458  1  0.81141218  0.57801937  0.60627464  1
  Mo  Mo459  1  0.84815560  0.64804892  0.60760197  1
  Mo  Mo460  1  0.88513503  0.71808957  0.60929696  1
  Mo  Mo461  1  0.92228307  0.78815435  0.61101638  1
  Mo  Mo462  1  0.95955301  0.85823288  0.61234783  1
  Mo  Mo463  1  0.99688445  0.92832567  0.61320792  1
  Mo  Mo464  1  0.03427383  0.99843490  0.61351043  1
  Mo  Mo465  1  0.07166858  0.06855428  0.61320900  1
  Mo  Mo466  1  0.10901066  0.13868091  0.61234898  1
  Mo  Mo467  1  0.14630997  0.20881545  0.61100817  1
  Mo  Mo468  1  0.18350990  0.27897178  0.60928488  1
  Mo  Mo469  1  0.22054722  0.34914979  0.60762212  1
  Mo  Mo470  1  0.25737504  0.41936066  0.60624603  1
  Mo  Mo471  1  0.29399539  0.48958628  0.60501605  1
  Mo  Mo472  1  0.33049325  0.55985672  0.60395734  1
  Mo  Mo473  1  0.36695577  0.63014151  0.60339544  1
  Mo  Mo474  1  0.40346007  0.70040600  0.60342716  1
  Mo  Mo475  1  0.44013521  0.77063132  0.60396440  1
  Mo  Mo476  1  0.47703463  0.84083953  0.60476142  1
  Mo  Mo477  1  0.51414963  0.91102752  0.60542505  1
  Mo  Mo478  1  0.55136747  0.98119932  0.60577117  1
  Mo  Mo479  1  0.58860758  0.05132985  0.60572762  1
  Mo  Mo480  1  0.62576419  0.12143763  0.60532841  1
  Mo  Mo481  1  0.66275072  0.19150179  0.60466522  1
  Mo  Mo482  1  0.69946001  0.26150506  0.60398843  1
  Mo  Mo483  1  0.73591877  0.33147194  0.60366138  1
  Mo  Mo484  1  0.77223010  0.40138682  0.60388105  1
  Mo  Mo485  1  0.80851175  0.47126711  0.60466153  1
  Mo  Mo486  1  0.84489220  0.54113128  0.60569462  1
  Mo  Mo487  1  0.88141233  0.61098854  0.60679478  1
  Mo  Mo488  1  0.91818431  0.68090296  0.60814206  1
  Mo  Mo489  1  0.95520301  0.75088524  0.60979574  1
  Mo  Mo490  1  0.99238035  0.82091135  0.61128239  1
  Mo  Mo491  1  0.02966815  0.89097897  0.61234885  1
  Mo  Mo492  1  0.06701405  0.96106094  0.61289988  1
  Mo  Mo493  1  0.10439772  0.03117846  0.61290751  1
  Mo  Mo494  1  0.14175974  0.10131195  0.61234650  1
  Mo  Mo495  1  0.17907704  0.17145817  0.61128093  1
  Mo  Mo496  1  0.21632206  0.24164303  0.60980311  1
  Mo  Mo497  1  0.25346274  0.31187385  0.60818256  1
  Mo  Mo498  1  0.29040494  0.38216960  0.60685181  1
  Mo  Mo499  1  0.32717858  0.45253777  0.60572266  1
  Mo  Mo500  1  0.36380249  0.52296201  0.60475474  1
  Mo  Mo501  1  0.40035437  0.59339325  0.60409257  1
  Mo  Mo502  1  0.43692043  0.66379438  0.60397495  1
  Mo  Mo503  1  0.47356822  0.73412912  0.60436208  1
  Mo  Mo504  1  0.51040760  0.80440896  0.60502247  1
  Mo  Mo505  1  0.54745879  0.87464392  0.60572806  1
  Mo  Mo506  1  0.58466144  0.94483712  0.60619676  1
  Mo  Mo507  1  0.62193002  0.01498058  0.60635475  1
  Mo  Mo508  1  0.65914125  0.08507680  0.60616065  1
  Mo  Mo509  1  0.69623672  0.15512093  0.60569621  1
  Mo  Mo510  1  0.73310122  0.22511731  0.60506767  1
  Mo  Mo511  1  0.76970118  0.29503385  0.60452929  1
  Mo  Mo512  1  0.80606412  0.36486059  0.60432883  1
  Mo  Mo513  1  0.84232064  0.43462516  0.60465003  1
  Mo  Mo514  1  0.87857083  0.50434121  0.60532593  1
  Mo  Mo515  1  0.91493138  0.57407470  0.60616027  1
  Mo  Mo516  1  0.95148040  0.64385986  0.60714039  1
  Mo  Mo517  1  0.98827851  0.71372215  0.60836173  1
  Mo  Mo518  1  0.02531869  0.78366304  0.60980432  1
  Mo  Mo519  1  0.06250247  0.85367530  0.61100830  1
  Mo  Mo520  1  0.09979703  0.92373261  0.61179063  1
  Mo  Mo521  1  0.13713784  0.99383840  0.61206713  1
  Mo  Mo522  1  0.17451286  0.06397503  0.61181142  1
  Mo  Mo523  1  0.21183740  0.13411814  0.61101466  1
  Mo  Mo524  1  0.24910315  0.20430640  0.60979389  1
  Mo  Mo525  1  0.28626454  0.27454521  0.60836077  1
  Mo  Mo526  1  0.32330403  0.34490066  0.60715876  1
  Mo  Mo527  1  0.36016734  0.41533467  0.60619225  1
  Mo  Mo528  1  0.39687381  0.48584757  0.60541920  1
  Mo  Mo529  1  0.43350957  0.55639029  0.60488927  1
  Mo  Mo530  1  0.47014465  0.62691082  0.60475461  1
  Mo  Mo531  1  0.50683358  0.69737385  0.60502037  1
  Mo  Mo532  1  0.54365422  0.76772985  0.60557662  1
  Mo  Mo533  1  0.58063467  0.83801750  0.60625061  1
  Mo  Mo534  1  0.61782676  0.90824063  0.60685556  1
  Mo  Mo535  1  0.65509464  0.97841000  0.60716003  1
  Mo  Mo536  1  0.69238189  0.04852687  0.60713804  1
  Mo  Mo537  1  0.72957653  0.11859936  0.60679338  1
  Mo  Mo538  1  0.76660718  0.18860420  0.60627642  1
  Mo  Mo539  1  0.80338650  0.25851086  0.60568203  1
  Mo  Mo540  1  0.83989098  0.32831502  0.60523043  1
  Mo  Mo541  1  0.87620435  0.39801039  0.60506647  1
  S  S542  1  0.87759668  0.40886843  0.34328752  1
  S  S543  1  0.91152823  0.47927283  0.34305441  1
  S  S544  1  0.94549219  0.54973943  0.34242041  1
  S  S545  1  0.97929644  0.62020535  0.34158187  1
  S  S546  1  0.01285102  0.69059478  0.34061046  1
  S  S547  1  0.04618489  0.76086401  0.33940267  1
  S  S548  1  0.07928505  0.83113211  0.33810923  1
  S  S549  1  0.11227224  0.90142990  0.33709172  1
  S  S550  1  0.14515084  0.97175109  0.33656339  1
  S  S551  1  0.17800052  0.04204121  0.33656231  1
  S  S552  1  0.21086595  0.11228994  0.33711080  1
  S  S553  1  0.24368996  0.18242356  0.33810214  1
  S  S554  1  0.27652391  0.25244604  0.33938531  1
  S  S555  1  0.30940550  0.32224620  0.34060903  1
  S  S556  1  0.34246321  0.39199416  0.34160193  1
  S  S557  1  0.37568511  0.46168727  0.34249756  1
  S  S558  1  0.40897952  0.53131503  0.34322855  1
  S  S559  1  0.44226360  0.60089800  0.34369318  1
  S  S560  1  0.47556771  0.67051406  0.34365329  1
  S  S561  1  0.50885854  0.74029164  0.34319657  1
  S  S562  1  0.54201500  0.81022396  0.34255183  1
  S  S563  1  0.57507308  0.88032355  0.34195225  1
  S  S564  1  0.60800158  0.95046977  0.34159669  1
  S  S565  1  0.64090723  0.02070906  0.34157940  1
  S  S566  1  0.67385915  0.09096498  0.34191334  1
  S  S567  1  0.70692066  0.16123495  0.34254563  1
  S  S568  1  0.74021776  0.23145658  0.34328437  1
  S  S569  1  0.77371823  0.30165288  0.34387066  1
  S  S570  1  0.80744016  0.37187817  0.34409484  1
  S  S571  1  0.84129900  0.44213889  0.34376897  1
  S  S572  1  0.87520910  0.51250416  0.34293991  1
  S  S573  1  0.90903673  0.58290630  0.34191340  1
  S  S574  1  0.91393332  0.37559599  0.34253380  1
  S  S575  1  0.94783110  0.44604980  0.34278633  1
  S  S576  1  0.98181002  0.51652277  0.34267199  1
  S  S577  1  0.01575749  0.58706150  0.34223816  1
  S  S578  1  0.04953974  0.65753485  0.34160066  1
  S  S579  1  0.08307643  0.72790914  0.34080123  1
  S  S580  1  0.11634703  0.79818236  0.33982724  1
  S  S581  1  0.14946191  0.86846454  0.33883037  1
  S  S582  1  0.18240083  0.93876519  0.33809318  1
  S  S583  1  0.21530007  0.00906897  0.33784042  1
  S  S584  1  0.24815963  0.07932365  0.33812827  1
  S  S585  1  0.28102906  0.14950863  0.33885430  1
  S  S586  1  0.31386407  0.21952747  0.33980569  1
  S  S587  1  0.34676664  0.28938551  0.34074007  1
  S  S588  1  0.37979513  0.35908346  0.34158486  1
  S  S589  1  0.41293811  0.42869084  0.34224293  1
  S  S590  1  0.44618367  0.49828165  0.34276742  1
  S  S591  1  0.47941192  0.56780947  0.34301359  1
  S  S592  1  0.51263594  0.63735248  0.34289318  1
  S  S593  1  0.54581597  0.70699840  0.34248717  1
  S  S594  1  0.57894096  0.77683251  0.34187434  1
  S  S595  1  0.61196180  0.84683236  0.34127206  1
  S  S596  1  0.64484143  0.91693630  0.34079522  1
  S  S597  1  0.67774516  0.98715785  0.34060519  1
  S  S598  1  0.71060200  0.05737842  0.34073686  1
  S  S599  1  0.74360789  0.12767983  0.34124205  1
  S  S600  1  0.77675366  0.19791653  0.34193162  1
  S  S601  1  0.81014686  0.26819467  0.34261480  1
  S  S602  1  0.84376874  0.33849575  0.34313032  1
  S  S603  1  0.95039490  0.34237670  0.34162037  1
  S  S604  1  0.98417986  0.41282715  0.34224735  1
  S  S605  1  0.01811740  0.48333170  0.34266754  1
  S  S606  1  0.05210080  0.55381696  0.34276125  1
  S  S607  1  0.08600949  0.62431430  0.34249441  1
  S  S608  1  0.11969036  0.69475062  0.34195562  1
  S  S609  1  0.15318377  0.76513111  0.34127533  1
  S  S610  1  0.18641560  0.83539258  0.34047997  1
  S  S611  1  0.21947050  0.90568307  0.33978433  1
  S  S612  1  0.25239943  0.97595755  0.33938423  1
  S  S613  1  0.28529264  0.04623764  0.33939774  1
  S  S614  1  0.31818135  0.11641223  0.33984708  1
  S  S615  1  0.35108193  0.18648187  0.34049930  1
  S  S616  1  0.38405883  0.25637637  0.34124424  1
  S  S617  1  0.41709489  0.32612515  0.34191824  1
  S  S618  1  0.45026124  0.39574880  0.34242642  1
  S  S619  1  0.48347824  0.46528631  0.34267841  1
  S  S620  1  0.51667076  0.53478717  0.34267444  1
  S  S621  1  0.54987096  0.60430824  0.34240677  1
  S  S622  1  0.58302719  0.67392828  0.34189319  1
  S  S623  1  0.61604767  0.74367977  0.34121528  1
  S  S624  1  0.64899364  0.81360237  0.34047917  1
  S  S625  1  0.68184644  0.88366773  0.33982276  1
  S  S626  1  0.71468329  0.95382703  0.33939564  1
  S  S627  1  0.74754213  0.02407632  0.33938318  1
  S  S628  1  0.78045844  0.09433542  0.33980423  1
  S  S629  1  0.81350293  0.16459780  0.34049977  1
  S  S630  1  0.84675329  0.23484624  0.34130963  1
  S  S631  1  0.88024609  0.30520327  0.34199285  1
  S  S632  1  0.98709374  0.30931276  0.34060894  1
  S  S633  1  0.02063504  0.37967923  0.34157421  1
  S  S634  1  0.05443584  0.45013190  0.34240048  1
  S  S635  1  0.08840027  0.52059028  0.34300612  1
  S  S636  1  0.12234139  0.59102308  0.34322283  1
  S  S637  1  0.15617452  0.66144396  0.34305905  1
  S  S638  1  0.18979527  0.73179140  0.34255237  1
  S  S639  1  0.22318894  0.80211000  0.34187418  1
  S  S640  1  0.25633914  0.87237004  0.34121404  1
  S  S641  1  0.28933805  0.94266867  0.34073419  1
  S  S642  1  0.32222061  0.01290074  0.34060585  1
  S  S643  1  0.35515066  0.08312775  0.34082383  1
  S  S644  1  0.38808164  0.15323320  0.34130747  1
  S  S645  1  0.42114651  0.22322784  0.34193280  1
  S  S646  1  0.45429830  0.29305883  0.34254944  1
  S  S647  1  0.48749709  0.36270288  0.34294677  1
  S  S648  1  0.52072851  0.43225671  0.34306153  1
  S  S649  1  0.55395328  0.50178398  0.34279288  1
  S  S650  1  0.58717705  0.57135823  0.34225310  1
  S  S651  1  0.62032411  0.64096373  0.34157784  1
  S  S652  1  0.65334416  0.71067784  0.34073667  1
  S  S653  1  0.68622905  0.78054668  0.33978633  1
  S  S654  1  0.71901669  0.85055366  0.33882935  1
  S  S655  1  0.75185555  0.92072865  0.33810487  1
  S  S656  1  0.78468976  0.99097301  0.33783667  1
  S  S657  1  0.81756437  0.06126523  0.33810090  1
  S  S658  1  0.85047879  0.13151882  0.33885507  1
  S  S659  1  0.88357575  0.20176482  0.33985067  1
  S  S660  1  0.91686246  0.27201900  0.34082758  1
  S  S661  1  0.02403524  0.27643039  0.33938680  1
  S  S662  1  0.05732833  0.34665846  0.34073396  1
  S  S663  1  0.09089796  0.41697493  0.34188880  1
  S  S664  1  0.12471632  0.48736654  0.34288587  1
  S  S665  1  0.15863939  0.55774053  0.34368527  1
  S  S666  1  0.19250703  0.62804810  0.34398965  1
  S  S667  1  0.22622563  0.69831972  0.34376690  1
  S  S668  1  0.25973136  0.76856898  0.34319482  1
  S  S669  1  0.29302484  0.83882190  0.34248440  1
  S  S670  1  0.32609027  0.90910316  0.34188985  1
  S  S671  1  0.35904826  0.97936212  0.34157288  1
  S  S672  1  0.39197779  0.04959853  0.34161796  1
  S  S673  1  0.42494703  0.11974297  0.34199072  1
  S  S674  1  0.45803246  0.18983706  0.34261464  1
  S  S675  1  0.49122111  0.25976215  0.34328647  1
  S  S676  1  0.52452961  0.32953456  0.34375282  1
  S  S677  1  0.55786113  0.39916231  0.34377622  1
  S  S678  1  0.59113311  0.46873295  0.34329385  1
  S  S679  1  0.62440892  0.53834591  0.34253895  1
  S  S680  1  0.65762909  0.60802912  0.34162349  1
  S  S681  1  0.69069075  0.67779134  0.34060976  1
  S  S682  1  0.72357241  0.74761597  0.33938766  1
  S  S683  1  0.75637845  0.81761414  0.33809486  1
  S  S684  1  0.78916850  0.88774115  0.33709035  1
  S  S685  1  0.82201175  0.95799071  0.33655865  1
  S  S686  1  0.85484857  0.02827425  0.33656167  1
  S  S687  1  0.88769988  0.09857392  0.33711172  1
  S  S688  1  0.92066582  0.16883101  0.33813186  1
  S  S689  1  0.95375380  0.23904729  0.33940314  1
  S  S690  1  0.06122679  0.24362149  0.33809422  1
  S  S691  1  0.09431172  0.31377266  0.33978309  1
  S  S692  1  0.12762894  0.38395501  0.34121188  1
  S  S693  1  0.16118143  0.45418797  0.34248163  1
  S  S694  1  0.19495096  0.52443895  0.34364518  1
  S  S695  1  0.22876377  0.59461637  0.34445733  1
  S  S696  1  0.26251097  0.66477178  0.34467633  1
  S  S697  1  0.29611840  0.73489091  0.34434181  1
  S  S698  1  0.32950966  0.80505768  0.34365017  1
  S  S699  1  0.36266847  0.87528962  0.34288869  1
  S  S700  1  0.39570563  0.94556619  0.34240045  1
  S  S701  1  0.42864675  0.01581830  0.34224608  1
  S  S702  1  0.46165314  0.08606063  0.34253332  1
  S  S703  1  0.49471361  0.15622066  0.34313074  1
  S  S704  1  0.52791790  0.22626494  0.34387212  1
  S  S705  1  0.56126527  0.29615663  0.34445841  1
  S  S706  1  0.59467686  0.36588912  0.34457807  1
  S  S707  1  0.62811966  0.43556733  0.34409872  1
  S  S708  1  0.66150528  0.50528179  0.34313290  1
  S  S709  1  0.69480131  0.57505554  0.34199418  1
  S  S710  1  0.72798710  0.64485748  0.34082660  1
  S  S711  1  0.76095778  0.71471973  0.33940149  1
  S  S712  1  0.79378186  0.78471237  0.33784357  1
  S  S713  1  0.82661157  0.85486052  0.33656307  1
  S  S714  1  0.85942366  0.92508735  0.33573646  1
  S  S715  1  0.89223625  0.99536433  0.33544527  1
  S  S716  1  0.92507336  0.06567257  0.33574246  1
  S  S717  1  0.95795008  0.13595347  0.33656459  1
  S  S718  1  0.99092210  0.20622172  0.33784462  1
  S  S719  1  0.09856453  0.21082885  0.33709194  1
  S  S720  1  0.13152940  0.28098188  0.33882808  1
  S  S721  1  0.16460396  0.35100805  0.34047679  1
  S  S722  1  0.19789119  0.42106333  0.34187125  1
  S  S723  1  0.23143690  0.49114928  0.34319091  1
  S  S724  1  0.26511988  0.56121942  0.34433803  1
  S  S725  1  0.29880779  0.63121571  0.34494415  1
  S  S726  1  0.33242895  0.70121086  0.34494574  1
  S  S727  1  0.36587415  0.77125169  0.34446226  1
  S  S728  1  0.39912211  0.84137191  0.34368956  1
  S  S729  1  0.43220564  0.91160629  0.34300705  1
  S  S730  1  0.46521886  0.98188411  0.34266617  1
  S  S731  1  0.49821222  0.05216684  0.34278583  1
  S  S732  1  0.53125766  0.12239589  0.34328959  1
  S  S733  1  0.56441969  0.19254625  0.34409808  1
  S  S734  1  0.59772131  0.26253618  0.34480068  1
  S  S735  1  0.63122185  0.33242854  0.34507162  1
  S  S736  1  0.66480320  0.40226277  0.34479852  1
  S  S737  1  0.69834288  0.47207369  0.34386980  1
  S  S738  1  0.73180629  0.54196550  0.34261394  1
  S  S739  1  0.76515807  0.61192123  0.34130747  1
  S  S740  1  0.79824245  0.68182660  0.33984759  1
  S  S741  1  0.83117604  0.75184951  0.33813088  1
  S  S742  1  0.86405125  0.82200731  0.33656399  1
  S  S743  1  0.89689149  0.89223951  0.33545204  1
  S  S744  1  0.92969977  0.96250710  0.33487306  1
  S  S745  1  0.96250379  0.03281249  0.33487802  1
  S  S746  1  0.99534415  0.10311088  0.33545360  1
  S  S747  1  0.02824170  0.17338926  0.33656501  1
  S  S748  1  0.13597158  0.17798348  0.33656024  1
  S  S749  1  0.16886471  0.24813822  0.33810675  1
  S  S750  1  0.20181352  0.31814937  0.33982330  1
  S  S751  1  0.23486720  0.38803855  0.34127225  1
  S  S752  1  0.26821092  0.45799067  0.34255024  1
  S  S753  1  0.30168771  0.52789800  0.34376515  1
  S  S754  1  0.33524107  0.59773676  0.34467706  1
  S  S755  1  0.36880193  0.66759251  0.34494660  1
  S  S756  1  0.40228255  0.73750861  0.34467960  1
  S  S757  1  0.43556164  0.80750896  0.34399308  1
  S  S758  1  0.46869800  0.87766819  0.34322429  1
  S  S759  1  0.50172555  0.94790407  0.34276017  1
  S  S760  1  0.53471107  0.01819107  0.34267037  1
  S  S761  1  0.56773163  0.08846748  0.34305524  1
  S  S762  1  0.60082110  0.15869212  0.34377231  1
  S  S763  1  0.63409354  0.22878394  0.34457622  1
  S  S764  1  0.66755347  0.29879186  0.34507099  1
  S  S765  1  0.70119281  0.36876366  0.34506953  1
  S  S766  1  0.73488452  0.43872467  0.34445348  1
  S  S767  1  0.76854028  0.50877435  0.34328186  1
  S  S768  1  0.80208479  0.57885221  0.34192958  1
  S  S769  1  0.83540866  0.64892034  0.34049713  1
  S  S770  1  0.86849149  0.71897609  0.33885449  1
  S  S771  1  0.90143516  0.78913926  0.33711321  1
  S  S772  1  0.93433336  0.85940819  0.33574246  1
  S  S773  1  0.96719194  0.92969508  0.33487739  1
  S  S774  1  0.00000180  0.00000105  0.33457555  1
  S  S775  1  0.03280602  0.07030165  0.33487306  1
  S  S776  1  0.06565906  0.14057608  0.33573804  1
  S  S777  1  0.17341739  0.14514369  0.33656205  1
  S  S778  1  0.20627401  0.21530131  0.33783867  1
  S  S779  1  0.23913468  0.28530793  0.33939841  1
  S  S780  1  0.27208819  0.35515346  0.34079830  1
  S  S781  1  0.30524882  0.42492739  0.34195470  1
  S  S782  1  0.33855888  0.49472270  0.34306004  1
  S  S783  1  0.37195812  0.56445494  0.34399346  1
  S  S784  1  0.40539450  0.63414653  0.34446401  1
  S  S785  1  0.43879439  0.70390427  0.34434407  1
  S  S786  1  0.47211422  0.77379398  0.34376833  1
  S  S787  1  0.50528598  0.84383879  0.34305886  1
  S  S788  1  0.53831686  0.91399936  0.34249282  1
  S  S789  1  0.57130722  0.98424699  0.34223622  1
  S  S790  1  0.60424063  0.05450824  0.34241981  1
  S  S791  1  0.63727935  0.12478763  0.34294156  1
  S  S792  1  0.67044476  0.19499091  0.34374900  1
  S  S793  1  0.70382427  0.26510777  0.34445647  1
  S  S794  1  0.73744757  0.33518745  0.34479789  1
  S  S795  1  0.77120382  0.40531644  0.34457247  1
  S  S796  1  0.80500370  0.47546736  0.34374579  1
  S  S797  1  0.83876457  0.54570081  0.34254420  1
  S  S798  1  0.87232416  0.61594219  0.34124090  1
  S  S799  1  0.90567389  0.68613861  0.33980451  1
  S  S800  1  0.93874706  0.75631365  0.33810379  1
  S  S801  1  0.97173651  0.82658451  0.33656412  1
  S  S802  1  0.00464434  0.89687677  0.33544625  1
  S  S803  1  0.03749925  0.96719402  0.33487392  1
  S  S804  1  0.07030849  0.03749494  0.33487716  1
  S  S805  1  0.10312433  0.10776158  0.33544485  1
  S  S806  1  0.94262833  0.65323487  0.34073870  1
  S  S807  1  0.97593511  0.72347789  0.33938763  1
  S  S808  1  0.00904000  0.79372661  0.33784179  1
  S  S809  1  0.04202128  0.86402717  0.33656151  1
  S  S810  1  0.07492229  0.93433863  0.33573868  1
  S  S811  1  0.10776711  0.00465116  0.33545328  1
  S  S812  1  0.14059552  0.07492130  0.33574129  1
  S  S813  1  0.87798806  0.40890169  0.44717833  1
  S  S814  1  0.91189160  0.47960788  0.44693997  1
  S  S815  1  0.94577081  0.55027298  0.44631223  1
  S  S816  1  0.97948142  0.62086921  0.44548514  1
  S  S817  1  0.01291849  0.69136265  0.44449380  1
  S  S818  1  0.04612505  0.76177292  0.44328568  1
  S  S819  1  0.07902978  0.83193282  0.44197432  1
  S  S820  1  0.11182670  0.90199004  0.44096183  1
  S  S821  1  0.14448122  0.97194720  0.44043280  1
  S  S822  1  0.17716136  0.04189968  0.44044316  1
  S  S823  1  0.20985225  0.11182459  0.44098695  1
  S  S824  1  0.24260740  0.18170667  0.44197988  1
  S  S825  1  0.27551530  0.25162212  0.44326041  1
  S  S826  1  0.30863346  0.32154308  0.44449240  1
  S  S827  1  0.34188259  0.39136154  0.44549862  1
  S  S828  1  0.37533844  0.46111601  0.44637330  1
  S  S829  1  0.40889908  0.53085764  0.44708916  1
  S  S830  1  0.44252731  0.60067182  0.44754540  1
  S  S831  1  0.47615781  0.67059916  0.44752006  1
  S  S832  1  0.50962139  0.74057834  0.44705283  1
  S  S833  1  0.54283861  0.81057240  0.44643290  1
  S  S834  1  0.57580346  0.88056034  0.44585641  1
  S  S835  1  0.60863522  0.95052396  0.44549780  1
  S  S836  1  0.64138774  0.02052350  0.44548530  1
  S  S837  1  0.67423810  0.09057514  0.44581130  1
  S  S838  1  0.70720802  0.16069797  0.44646667  1
  S  S839  1  0.74052801  0.23096624  0.44718364  1
  S  S840  1  0.77410474  0.30134470  0.44778417  1
  S  S841  1  0.80791581  0.37189415  0.44798793  1
  S  S842  1  0.84181688  0.44252801  0.44766442  1
  S  S843  1  0.87568398  0.51313183  0.44684858  1
  S  S844  1  0.90942585  0.58367421  0.44580987  1
  S  S845  1  0.91416100  0.37533249  0.44643252  1
  S  S846  1  0.94801258  0.44603210  0.44667600  1
  S  S847  1  0.98191812  0.51676468  0.44656343  1
  S  S848  1  0.01577627  0.58748006  0.44612239  1
  S  S849  1  0.04948577  0.65811198  0.44549795  1
  S  S850  1  0.08292417  0.72859058  0.44469045  1
  S  S851  1  0.11608829  0.79895388  0.44370772  1
  S  S852  1  0.14900668  0.86910177  0.44269158  1
  S  S853  1  0.18173457  0.93913644  0.44197197  1
  S  S854  1  0.21443388  0.00910930  0.44172433  1
  S  S855  1  0.24712389  0.07903728  0.44200013  1
  S  S856  1  0.27993185  0.14899219  0.44272674  1
  S  S857  1  0.31283025  0.21891717  0.44369948  1
  S  S858  1  0.34590348  0.28880471  0.44464362  1
  S  S859  1  0.37912767  0.35860245  0.44548762  1
  S  S860  1  0.41251716  0.42828985  0.44612550  1
  S  S861  1  0.44603272  0.49796262  0.44663613  1
  S  S862  1  0.47960587  0.56766927  0.44688447  1
  S  S863  1  0.51314266  0.63742897  0.44677257  1
  S  S864  1  0.54656635  0.70724442  0.44637146  1
  S  S865  1  0.57980172  0.77716324  0.44577452  1
  S  S866  1  0.61280196  0.84709297  0.44516519  1
  S  S867  1  0.64567727  0.91709014  0.44468774  1
  S  S868  1  0.67844750  0.98709024  0.44449126  1
  S  S869  1  0.71118112  0.05709692  0.44464155  1
  S  S870  1  0.74402278  0.12719974  0.44515193  1
  S  S871  1  0.77710256  0.19737884  0.44585418  1
  S  S872  1  0.81049961  0.26773877  0.44653991  1
  S  S873  1  0.84414503  0.33823573  0.44702046  1
  S  S874  1  0.95046795  0.34189183  0.44552946  1
  S  S875  1  0.98417756  0.41251558  0.44614324  1
  S  S876  1  0.01802764  0.48323041  0.44655310  1
  S  S877  1  0.05193251  0.55396639  0.44663130  1
  S  S878  1  0.08578343  0.62465804  0.44637101  1
  S  S879  1  0.11945487  0.69524185  0.44585584  1
  S  S880  1  0.15292602  0.76571097  0.44516541  1
  S  S881  1  0.18607205  0.83600775  0.44437475  1
  S  S882  1  0.21895816  0.90614340  0.44367501  1
  S  S883  1  0.25168092  0.97616548  0.44325501  1
  S  S884  1  0.28440675  0.04614811  0.44329319  1
  S  S885  1  0.31718751  0.11610034  0.44373575  1
  S  S886  1  0.35010563  0.18606201  0.44441347  1
  S  S887  1  0.38316038  0.25595852  0.44515460  1
  S  S888  1  0.41632464  0.32574497  0.44581448  1
  S  S889  1  0.44972558  0.39549322  0.44631700  1
  S  S890  1  0.48323512  0.46515164  0.44656820  1
  S  S891  1  0.51677208  0.53479862  0.44655822  1
  S  S892  1  0.55028684  0.60447314  0.44629249  1
  S  S893  1  0.58369134  0.67423687  0.44577977  1
  S  S894  1  0.61688410  0.74404036  0.44510406  1
  S  S895  1  0.64995367  0.81394854  0.44437554  1
  S  S896  1  0.68287845  0.88392926  0.44370517  1
  S  S897  1  0.71565385  0.95388776  0.44328063  1
  S  S898  1  0.74836631  0.02389237  0.44325901  1
  S  S899  1  0.78106846  0.09391202  0.44369770  1
  S  S900  1  0.81392054  0.16404135  0.44441261  1
  S  S901  1  0.84704091  0.23432053  0.44521999  1
  S  S902  1  0.88048577  0.30475574  0.44591252  1
  S  S903  1  0.98703887  0.30864412  0.44450035  1
  S  S904  1  0.02047112  0.37911082  0.44547306  1
  S  S905  1  0.05418570  0.44971762  0.44628747  1
  S  S906  1  0.08806652  0.52039618  0.44687811  1
  S  S907  1  0.12196369  0.59110024  0.44708407  1
  S  S908  1  0.15580302  0.66176807  0.44691162  1
  S  S909  1  0.18944771  0.73226616  0.44643039  1
  S  S910  1  0.22286023  0.80263986  0.44577261  1
  S  S911  1  0.25598070  0.87284564  0.44510202  1
  S  S912  1  0.28885032  0.94295453  0.44463574  1
  S  S913  1  0.32160537  0.01295557  0.44450006  1
  S  S914  1  0.35437778  0.08295135  0.44472545  1
  S  S915  1  0.38726595  0.15294337  0.44522088  1
  S  S916  1  0.42025757  0.22287650  0.44585711  1
  S  S917  1  0.45347251  0.29277014  0.44647073  1
  S  S918  1  0.48686795  0.36254905  0.44685494  1
  S  S919  1  0.52039273  0.43228498  0.44694611  1
  S  S920  1  0.55397120  0.50198345  0.44668115  1
  S  S921  1  0.58749002  0.57166850  0.44614718  1
  S  S922  1  0.62089477  0.64136991  0.44547618  1
  S  S923  1  0.65411904  0.71116652  0.44463730  1
  S  S924  1  0.68720144  0.78105951  0.44367714  1
  S  S925  1  0.72011043  0.85101214  0.44269142  1
  S  S926  1  0.75291195  0.92098666  0.44197050  1
  S  S927  1  0.78560196  0.99093384  0.44171123  1
  S  S928  1  0.81828050  0.06090034  0.44197816  1
  S  S929  1  0.85099258  0.13093666  0.44272661  1
  S  S930  1  0.88388486  0.20108276  0.44373738  1
  S  S931  1  0.91703733  0.27142308  0.44472586  1
  S  S932  1  0.02382968  0.27550667  0.44325641  1
  S  S933  1  0.05704373  0.34588563  0.44463450  1
  S  S934  1  0.09054305  0.41631312  0.44577554  1
  S  S935  1  0.12428688  0.48686142  0.44676564  1
  S  S936  1  0.15814930  0.55747535  0.44753745  1
  S  S937  1  0.19205242  0.62810849  0.44783436  1
  S  S938  1  0.22585478  0.69865104  0.44763832  1
  S  S939  1  0.25944529  0.76904474  0.44704949  1
  S  S940  1  0.29277978  0.83932576  0.44636840  1
  S  S941  1  0.32578297  0.90945873  0.44577783  1
  S  S942  1  0.35864323  0.97952660  0.44547430  1
  S  S943  1  0.39141815  0.04952508  0.44553082  1
  S  S944  1  0.42425680  0.11950196  0.44591461  1
  S  S945  1  0.45722225  0.18948277  0.44654296  1
  S  S946  1  0.49041949  0.25945071  0.44718739  1
  S  S947  1  0.52385736  0.32940638  0.44765765  1
  S  S948  1  0.55747276  0.39929127  0.44767166  1
  S  S949  1  0.59110218  0.46909241  0.44718408  1
  S  S950  1  0.62467441  0.53883803  0.44643662  1
  S  S951  1  0.65811667  0.60858855  0.44553187  1
  S  S952  1  0.69136260  0.67840701  0.44450114  1
  S  S953  1  0.72449852  0.74833397  0.44325749  1
  S  S954  1  0.75741779  0.81828199  0.44197378  1
  S  S955  1  0.79017559  0.88818890  0.44096117  1
  S  S956  1  0.82285643  0.95812467  0.44043372  1
  S  S957  1  0.85552703  0.02806865  0.44043051  1
  S  S958  1  0.88816349  0.09802447  0.44098695  1
  S  S959  1  0.92094983  0.16807957  0.44200306  1
  S  S960  1  0.95384254  0.23825239  0.44329659  1
  S  S961  1  0.06085676  0.24258554  0.44197247  1
  S  S962  1  0.09385286  0.31280218  0.44367329  1
  S  S963  1  0.12715279  0.38312021  0.44509980  1
  S  S964  1  0.16067770  0.45344010  0.44636507  1
  S  S965  1  0.19444588  0.52384953  0.44751119  1
  S  S966  1  0.22834155  0.59435929  0.44830589  1
  S  S967  1  0.26222994  0.66487512  0.44851697  1
  S  S968  1  0.29595588  0.73527885  0.44818795  1
  S  S969  1  0.32942363  0.80556204  0.44751752  1
  S  S970  1  0.36259243  0.87571976  0.44676997  1
  S  S971  1  0.39554225  0.94581724  0.44628950  1
  S  S972  1  0.42833672  0.01581998  0.44614499  1
  S  S973  1  0.46116017  0.08583206  0.44643583  1
  S  S974  1  0.49407466  0.15584337  0.44702507  1
  S  S975  1  0.52722099  0.22587794  0.44778865  1
  S  S976  1  0.56068476  0.29594788  0.44836632  1
  S  S977  1  0.59436116  0.36600802  0.44847946  1
  S  S978  1  0.62810757  0.43602863  0.44799210  1
  S  S979  1  0.66176899  0.50591919  0.44702288  1
  S  S980  1  0.69525223  0.57574499  0.44591411  1
  S  S981  1  0.72858590  0.64563013  0.44472516  1
  S  S982  1  0.76175474  0.71560373  0.44329487  1
  S  S983  1  0.79469016  0.78557976  0.44172709  1
  S  S984  1  0.82747875  0.85553214  0.44043296  1
  S  S985  1  0.86011949  0.92541531  0.43961060  1
  S  S986  1  0.89278119  0.99535276  0.43932294  1
  S  S987  1  0.92540679  0.06530517  0.43962253  1
  S  S988  1  0.95809070  0.13525506  0.44044501  1
  S  S989  1  0.99088169  0.20531482  0.44172776  1
  S  S990  1  0.09800501  0.20982473  0.44096193  1
  S  S991  1  0.13089304  0.27989055  0.44268900  1
  S  S992  1  0.16398883  0.35004870  0.44437179  1
  S  S993  1  0.19736029  0.42020445  0.44576978  1
  S  S994  1  0.23095933  0.49038791  0.44704513  1
  S  S995  1  0.26472847  0.56066800  0.44818325  1
  S  S996  1  0.29861959  0.63104954  0.44878587  1
  S  S997  1  0.33244802  0.70139393  0.44878823  1
  S  S998  1  0.36603837  0.77167142  0.44831272  1
  S  S999  1  0.39934741  0.84186285  0.44754460  1
  S  S1000  1  0.43234650  0.91194180  0.44688212  1
  S  S1001  1  0.46520787  0.98197420  0.44655485  1
  S  S1002  1  0.49801228  0.05198386  0.44667886  1
  S  S1003  1  0.53089749  0.12200279  0.44718437  1
  S  S1004  1  0.56395910  0.19207103  0.44799458  1
  S  S1005  1  0.59734774  0.26222526  0.44869674  1
  S  S1006  1  0.63104617  0.33243051  0.44896955  1
  S  S1007  1  0.66486892  0.40263889  0.44869299  1
  S  S1008  1  0.69865481  0.47276989  0.44778350  1
  S  S1009  1  0.73226408  0.54277452  0.44653937  1
  S  S1010  1  0.76568630  0.61273646  0.44521815  1
  S  S1011  1  0.79892530  0.68281796  0.44373442  1
  S  S1012  1  0.83192674  0.75288391  0.44200188  1
  S  S1013  1  0.86474966  0.82284770  0.44044488  1
  S  S1014  1  0.89743700  0.89277432  0.43933385  1
  S  S1015  1  0.93007938  0.96268736  0.43874289  1
  S  S1016  1  0.96268311  0.03260743  0.43874597  1
  S  S1017  1  0.99533357  0.10256569  0.43933483  1
  S  S1018  1  0.02804600  0.17252349  0.44043426  1
  S  S1019  1  0.13526036  0.17713890  0.44043566  1
  S  S1020  1  0.16806505  0.24708379  0.44197146  1
  S  S1021  1  0.20104171  0.31711894  0.44370371  1
  S  S1022  1  0.23428558  0.38719942  0.44516261  1
  S  S1023  1  0.26773408  0.45716853  0.44642810  1
  S  S1024  1  0.30135207  0.52719417  0.44763647  1
  S  S1025  1  0.33513179  0.59734966  0.44851789  1
  S  S1026  1  0.36896345  0.66756932  0.44878918  1
  S  S1027  1  0.40266612  0.73778675  0.44852183  1
  S  S1028  1  0.43607781  0.80796300  0.44784107  1
  S  S1029  1  0.46915578  0.87804799  0.44708961  1
  S  S1030  1  0.50204453  0.94807359  0.44663384  1
  S  S1031  1  0.53484487  0.01808224  0.44656505  1
  S  S1032  1  0.56770264  0.08810193  0.44694404  1
  S  S1033  1  0.60069257  0.15817362  0.44767074  1
  S  S1034  1  0.63397636  0.22834888  0.44847908  1
  S  S1035  1  0.66755440  0.29861547  0.44896892  1
  S  S1036  1  0.70137305  0.36894312  0.44896666  1
  S  S1037  1  0.73525833  0.43930646  0.44835961  1
  S  S1038  1  0.76903213  0.50957485  0.44718078  1
  S  S1039  1  0.80262315  0.57973998  0.44585212  1
  S  S1040  1  0.83596502  0.64989476  0.44440997  1
  S  S1041  1  0.86907195  0.72007005  0.44272575  1
  S  S1042  1  0.90198377  0.79015143  0.44098825  1
  S  S1043  1  0.93470150  0.86011085  0.43962281  1
  S  S1044  1  0.96739667  0.93007891  0.43874534  1
  S  S1045  1  0.00000163  0.00000095  0.43845497  1
  S  S1046  1  0.03260730  0.06992190  0.43874292  1
  S  S1047  1  0.06529028  0.13988010  0.43961207  1
  S  S1048  1  0.17253258  0.14446410  0.44043175  1
  S  S1049  1  0.20532134  0.21438895  0.44171314  1
  S  S1050  1  0.23822442  0.28433879  0.44328162  1
  S  S1051  1  0.27140407  0.35431807  0.44468778  1
  S  S1052  1  0.30475400  0.42419877  0.44585472  1
  S  S1053  1  0.33823093  0.49402571  0.44691238  1
  S  S1054  1  0.37189317  0.56393740  0.44783859  1
  S  S1055  1  0.40564765  0.63398020  0.44831304  1
  S  S1056  1  0.43934348  0.70406447  0.44819097  1
  S  S1057  1  0.47281796  0.77416456  0.44764280  1
  S  S1058  1  0.50598378  0.84421105  0.44691559  1
  S  S1059  1  0.53888906  0.91422642  0.44637340  1
  S  S1060  1  0.57170827  0.98422862  0.44612366  1
  S  S1061  1  0.60449523  0.05422848  0.44631401  1
  S  S1062  1  0.63743261  0.12431216  0.44685163  1
  S  S1063  1  0.67057340  0.19444701  0.44765453  1
  S  S1064  1  0.70403418  0.26473652  0.44836340  1
  S  S1065  1  0.73776073  0.33512666  0.44869219  1
  S  S1066  1  0.77164091  0.40563535  0.44847320  1
  S  S1067  1  0.80554794  0.47613910  0.44764998  1
  S  S1068  1  0.83930113  0.54652463  0.44646454  1
  S  S1069  1  0.87280416  0.61683806  0.44515031  1
  S  S1070  1  0.90609533  0.68716928  0.44369745  1
  S  S1071  1  0.93911035  0.75739334  0.44198068  1
  S  S1072  1  0.97194156  0.82746902  0.44043296  1
  S  S1073  1  0.00465557  0.89743423  0.43932387  1
  S  S1074  1  0.03731781  0.96739281  0.43874336  1
  S  S1075  1  0.06992425  0.03731605  0.43874540  1
  S  S1076  1  0.10256648  0.10721490  0.43932333  1
  S  S1077  1  0.94290816  0.65409438  0.44464187  1
  S  S1078  1  0.97611665  0.72448326  0.44326232  1
  S  S1079  1  0.00907906  0.79467830  0.44171584  1
  S  S1080  1  0.04188869  0.86473830  0.44043639  1
  S  S1081  1  0.07459559  0.93470627  0.43961213  1
  S  S1082  1  0.10723374  0.00466229  0.43933445  1
  S  S1083  1  0.13989365  0.07458657  0.43962202  1
  S  S1084  1  0.94806449  0.50203051  0.55358922  1
  S  S1085  1  0.98422744  0.57168960  0.55403675  1
  S  S1086  1  0.02053132  0.64137952  0.55463095  1
  S  S1087  1  0.05710407  0.71118439  0.55546866  1
  S  S1088  1  0.09391123  0.78107117  0.55642755  1
  S  S1089  1  0.13092972  0.85099092  0.55740786  1
  S  S1090  1  0.16807898  0.92094900  0.55813494  1
  S  S1091  1  0.20531968  0.99088007  0.55841360  1
  S  S1092  1  0.24258588  0.06085380  0.55817137  1
  S  S1093  1  0.27988190  0.13088854  0.55744842  1
  S  S1094  1  0.31710900  0.20103597  0.55641636  1
  S  S1095  1  0.35431647  0.27140070  0.55541659  1
  S  S1096  1  0.39137195  0.34189020  0.55461728  1
  S  S1097  1  0.42830508  0.41253256  0.55403529  1
  S  S1098  1  0.46516093  0.48325029  0.55364625  1
  S  S1099  1  0.50197536  0.55397205  0.55354446  1
  S  S1100  1  0.53881258  0.62466231  0.55375503  1
  S  S1101  1  0.57572016  0.69523766  0.55423098  1
  S  S1102  1  0.61272527  0.76567758  0.55489747  1
  S  S1103  1  0.64989577  0.83596120  0.55570619  1
  S  S1104  1  0.68717102  0.90609299  0.55642926  1
  S  S1105  1  0.72448286  0.97611297  0.55687196  1
  S  S1106  1  0.76177089  0.04611815  0.55684780  1
  S  S1107  1  0.79895606  0.11608277  0.55641362  1
  S  S1108  1  0.83600864  0.18606858  0.55574141  1
  S  S1109  1  0.87283778  0.25598291  0.55501388  1
  S  S1110  1  0.90944670  0.32579372  0.55436004  1
  S  S1111  1  0.94580711  0.39555483  0.55388836  1
  S  S1112  1  0.98196847  0.46521162  0.55365808  1
  S  S1113  1  0.01808693  0.53483213  0.55364905  1
  S  S1114  1  0.05423705  0.60447671  0.55386699  1
  S  S1115  1  0.09058753  0.67422643  0.55432743  1
  S  S1116  1  0.12720920  0.74402141  0.55496385  1
  S  S1117  1  0.16404200  0.81392421  0.55570224  1
  S  S1118  1  0.20107874  0.88388825  0.55638374  1
  S  S1119  1  0.23825022  0.95384599  0.55683680  1
  S  S1120  1  0.27550223  0.02383004  0.55687787  1
  S  S1121  1  0.31279551  0.09385098  0.55645495  1
  S  S1122  1  0.35004224  0.16398450  0.55574306  1
  S  S1123  1  0.38720577  0.23428616  0.55494821  1
  S  S1124  1  0.42421912  0.30476163  0.55428451  1
  S  S1125  1  0.46113921  0.37534817  0.55381365  1
  S  S1126  1  0.49797312  0.44603533  0.55358687  1
  S  S1127  1  0.53479146  0.51676036  0.55365445  1
  S  S1128  1  0.57165251  0.58747478  0.55401278  1
  S  S1129  1  0.60857339  0.65810418  0.55458600  1
  S  S1130  1  0.64562528  0.72858127  0.55538245  1
  S  S1131  1  0.68282320  0.79892594  0.55638768  1
  S  S1132  1  0.72007342  0.86907552  0.55741002  1
  S  S1133  1  0.75738696  0.93911261  0.55816158  1
  S  S1134  1  0.79466754  0.00907825  0.55842651  1
  S  S1135  1  0.83192630  0.07902488  0.55816667  1
  S  S1136  1  0.86910276  0.14900100  0.55744702  1
  S  S1137  1  0.90614216  0.21895202  0.55645450  1
  S  S1138  1  0.94294714  0.28884681  0.55547521  1
  S  S1139  1  0.97951860  0.35865026  0.55464055  1
  S  S1140  1  0.01581954  0.42834941  0.55401545  1
  S  S1141  1  0.05199146  0.49801684  0.55354643  1
  S  S1142  1  0.08811285  0.56769364  0.55330725  1
  S  S1143  1  0.12432560  0.63741459  0.55337534  1
  S  S1144  1  0.16071049  0.70719275  0.55371447  1
  S  S1145  1  0.19739158  0.77709454  0.55428706  1
  S  S1146  1  0.23432609  0.84703736  0.55489480  1
  S  S1147  1  0.27142424  0.91703595  0.55538105  1
  S  S1148  1  0.30864408  0.98704084  0.55560383  1
  S  S1149  1  0.34588796  0.05704828  0.55547527  1
  S  S1150  1  0.38312846  0.12715764  0.55501509  1
  S  S1151  1  0.42022276  0.19736702  0.55436767  1
  S  S1152  1  0.45719583  0.26774407  0.55375026  1
  S  S1153  1  0.49405006  0.33823988  0.55331819  1
  S  S1154  1  0.53087186  0.40890227  0.55318079  1
  S  S1155  1  0.56766336  0.47958943  0.55336212  1
  S  S1156  1  0.60445712  0.55026191  0.55388480  1
  S  S1157  1  0.64135929  0.62087752  0.55463788  1
  S  S1158  1  0.67840667  0.69135909  0.55560344  1
  S  S1159  1  0.71560716  0.76175330  0.55683915  1
  S  S1160  1  0.75288146  0.83192359  0.55813717  1
  S  S1161  1  0.79014316  0.90198316  0.55913407  1
  S  S1162  1  0.82745732  0.97194108  0.55968244  1
  S  S1163  1  0.86472734  0.04188749  0.55967996  1
  S  S1164  1  0.90198596  0.11182991  0.55916396  1
  S  S1165  1  0.93913589  0.18173626  0.55817334  1
  S  S1166  1  0.97616194  0.25167452  0.55688080  1
  S  S1167  1  0.01295085  0.32160205  0.55560535  1
  S  S1168  1  0.04952633  0.39142970  0.55458740  1
  S  S1169  1  0.08584397  0.46118206  0.55375573  1
  S  S1170  1  0.12201384  0.53090926  0.55309382  1
  S  S1171  1  0.15817964  0.60068562  0.55263052  1
  S  S1172  1  0.19445391  0.67055873  0.55262067  1
  S  S1173  1  0.23097862  0.74051232  0.55305090  1
  S  S1174  1  0.26775194  0.81048349  0.55364606  1
  S  S1175  1  0.30476680  0.88047436  0.55423155  1
  S  S1176  1  0.34190065  0.95046398  0.55458784  1
  S  S1177  1  0.37912435  0.02047650  0.55464081  1
  S  S1178  1  0.41633435  0.09055247  0.55436132  1
  S  S1179  1  0.45346544  0.16068816  0.55381263  1
  S  S1180  1  0.49041438  0.23097170  0.55318175  1
  S  S1181  1  0.52721485  0.30136377  0.55263510  1
  S  S1182  1  0.56394618  0.37189868  0.55246547  1
  S  S1183  1  0.60066694  0.44251387  0.55274980  1
  S  S1184  1  0.63741283  0.51311191  0.55344973  1
  S  S1185  1  0.67422266  0.58366633  0.55435693  1
  S  S1186  1  0.71116642  0.65411296  0.55547247  1
  S  S1187  1  0.74833644  0.72449920  0.55687711  1
  S  S1188  1  0.78557102  0.79468149  0.55841475  1
  S  S1189  1  0.82283583  0.86473872  0.55966921  1
  S  S1190  1  0.86010343  0.93469562  0.56047469  1
  S  S1191  1  0.89742865  0.00465116  0.56077357  1
  S  S1192  1  0.93470025  0.07459600  0.56048664  1
  S  S1193  1  0.97194508  0.14448979  0.55968403  1
  S  S1194  1  0.00910735  0.21443859  0.55841844  1
  S  S1195  1  0.04614137  0.28439941  0.55684176  1
  S  S1196  1  0.08294975  0.35437867  0.55538276  1
  S  S1197  1  0.11951071  0.42427800  0.55423047  1
  S  S1198  1  0.15585897  0.49409952  0.55321417  1
  S  S1199  1  0.19207535  0.56396848  0.55231867  1
  S  S1200  1  0.22834509  0.63397017  0.55184450  1
  S  S1201  1  0.26473767  0.70402513  0.55193714  1
  S  S1202  1  0.30135466  0.77409066  0.55249675  1
  S  S1203  1  0.33824365  0.84412700  0.55321805  1
  S  S1204  1  0.37534128  0.91414673  0.55375821  1
  S  S1205  1  0.41252743  0.98417578  0.55401640  1
  S  S1206  1  0.44973897  0.05419350  0.55388956  1
  S  S1207  1  0.48688857  0.12430005  0.55345653  1
  S  S1208  1  0.52386950  0.19445433  0.55275940  1
  S  S1209  1  0.56067639  0.26473256  0.55211090  1
  S  S1210  1  0.59735271  0.33513893  0.55179040  1
  S  S1211  1  0.63397482  0.40564399  0.55200479  1
  S  S1212  1  0.67058571  0.47613445  0.55275081  1
  S  S1213  1  0.70722748  0.54653738  0.55380634  1
  S  S1214  1  0.74403487  0.61687204  0.55501058  1
  S  S1215  1  0.78106217  0.68720443  0.55645094  1
  S  S1216  1  0.81827650  0.75741347  0.55817010  1
  S  S1217  1  0.85551955  0.82746592  0.55968250  1
  S  S1218  1  0.89276986  0.89742911  0.56076263  1
  S  S1219  1  0.93007808  0.96739055  0.56135429  1
  S  S1220  1  0.96738780  0.03731182  0.56135690  1
  S  S1221  1  0.00465672  0.10723405  0.56076289  1
  S  S1222  1  0.04189842  0.17716918  0.55967137  1
  S  S1223  1  0.07903448  0.24712234  0.55813946  1
  S  S1224  1  0.11609365  0.31717830  0.55638686  1
  S  S1225  1  0.15294408  0.38727348  0.55489512  1
  S  S1226  1  0.18949615  0.45724993  0.55364377  1
  S  S1227  1  0.22588947  0.52724362  0.55249243  1
  S  S1228  1  0.26222390  0.59735323  0.55161778  1
  S  S1229  1  0.29861163  0.66755288  0.55133499  1
  S  S1230  1  0.33513197  0.73775932  0.55162262  1
  S  S1231  1  0.37189785  0.80790890  0.55232535  1
  S  S1232  1  0.40890105  0.87797476  0.55309922  1
  S  S1233  1  0.44602772  0.94800255  0.55354904  1
  S  S1234  1  0.48323850  0.01803103  0.55365928  1
  S  S1235  1  0.52040902  0.08807576  0.55336848  1
  S  S1236  1  0.55748549  0.15815657  0.55275768  1
  S  S1237  1  0.59435996  0.22833867  0.55201197  1
  S  S1238  1  0.63104520  0.29861593  0.55150945  1
  S  S1239  1  0.66756857  0.36896505  0.55150614  1
  S  S1240  1  0.70405857  0.43933192  0.55210340  1
  S  S1241  1  0.74056245  0.50959150  0.55317444  1
  S  S1242  1  0.77714965  0.57977953  0.55436284  1
  S  S1243  1  0.81394861  0.64995633  0.55573893  1
  S  S1244  1  0.85101416  0.72011517  0.55744563  1
  S  S1245  1  0.88818195  0.79016636  0.55916332  1
  S  S1246  1  0.92541110  0.86011102  0.56048696  1
  S  S1247  1  0.96268951  0.93007841  0.56135683  1
  S  S1248  1  0.99999888  0.99999958  0.56165559  1
  S  S1249  1  0.03730874  0.06992104  0.56135435  1
  S  S1250  1  0.07458592  0.13989697  0.56047539  1
  S  S1251  1  0.11183015  0.20985662  0.55913528  1
  S  S1252  1  0.14899017  0.27992461  0.55740913  1
  S  S1253  1  0.18605512  0.35010077  0.55570282  1
  S  S1254  1  0.22288156  0.42027650  0.55428534  1
  S  S1255  1  0.25946391  0.49044599  0.55304791  1
  S  S1256  1  0.29595408  0.56069337  0.55193402  1
  S  S1257  1  0.33242938  0.63104271  0.55133423  1
  S  S1258  1  0.36894365  0.70137413  0.55133740  1
  S  S1259  1  0.40563141  0.77164198  0.55185080  1
  S  S1260  1  0.44251351  0.84180833  0.55263707  1
  S  S1261  1  0.47958665  0.91187839  0.55331132  1
  S  S1262  1  0.51674597  0.98191112  0.55365089  1
  S  S1263  1  0.55396032  0.05193932  0.55359195  1
  S  S1264  1  0.59109383  0.12197361  0.55318626  1
  S  S1265  1  0.62810002  0.19205476  0.55246999  1
  S  S1266  1  0.66486527  0.26222486  0.55179218  1
  S  S1267  1  0.70139505  0.33244618  0.55150729  1
  S  S1268  1  0.73778952  0.40266019  0.55178703  1
  S  S1269  1  0.77415412  0.47279400  0.55262925  1
  S  S1270  1  0.81055345  0.54280765  0.55374562  1
  S  S1271  1  0.84708553  0.61279203  0.55494528  1
  S  S1272  1  0.88393161  0.68288452  0.55641432  1
  S  S1273  1  0.92098802  0.75290849  0.55816908  1
  S  S1274  1  0.95812206  0.82284459  0.55968167  1
  S  S1275  1  0.99535340  0.89277801  0.56077382  1
  S  S1276  1  0.03260951  0.96268644  0.56135353  1
  S  S1277  1  0.06991875  0.03260823  0.56135683  1
  S  S1278  1  0.10721393  0.10256813  0.56077350  1
  S  S1279  1  0.14447312  0.17254043  0.55968314  1
  S  S1280  1  0.18171313  0.24260991  0.55816203  1
  S  S1281  1  0.21891078  0.31282466  0.55642716  1
  S  S1282  1  0.25595654  0.38316919  0.55496245  1
  S  S1283  1  0.29278248  0.45349852  0.55371161  1
  S  S1284  1  0.32941814  0.52387700  0.55261844  1
  S  S1285  1  0.36601122  0.59436184  0.55184470  1
  S  S1286  1  0.40263035  0.66486057  0.55162198  1
  S  S1287  1  0.43929442  0.73525419  0.55194108  1
  S  S1288  1  0.47611593  0.80553839  0.55262569  1
  S  S1289  1  0.51309888  0.87566809  0.55337897  1
  S  S1290  1  0.55024456  0.94575987  0.55386935  1
  S  S1291  1  0.58746140  0.01577525  0.55403885  1
  S  S1292  1  0.62464501  0.08579595  0.55381683  1
  S  S1293  1  0.66175593  0.15581730  0.55331978  1
  S  S1294  1  0.69863635  0.22586283  0.55263434  1
  S  S1295  1  0.73527203  0.29595916  0.55210721  1
  S  S1296  1  0.77167195  0.36604098  0.55200574  1
  S  S1297  1  0.80795840  0.43606591  0.55246344  1
  S  S1298  1  0.84419435  0.50595613  0.55331526  1
  S  S1299  1  0.88054613  0.57577938  0.55428280  1
  S  S1300  1  0.91708670  0.64567505  0.55541608  1
  S  S1301  1  0.95389148  0.71565725  0.55685130  1
  S  S1302  1  0.99093106  0.78559033  0.55843007  1
  S  S1303  1  0.02806550  0.85551402  0.55968415  1
  S  S1304  1  0.06530720  0.92540349  0.56047456  1
  S  S1305  1  0.10256947  0.99533506  0.56076155  1
  S  S1306  1  0.13988444  0.06529251  0.56048556  1
  S  S1307  1  0.17714657  0.13526751  0.55967983  1
  S  S1308  1  0.21439667  0.20532824  0.55842835  1
  S  S1309  1  0.25161656  0.27551189  0.55687348  1
  S  S1310  1  0.28879779  0.34590512  0.55546751  1
  S  S1311  1  0.32575327  0.41634659  0.55432539  1
  S  S1312  1  0.36256398  0.48689749  0.55337331  1
  S  S1313  1  0.39929502  0.55748378  0.55263059  1
  S  S1314  1  0.43601597  0.62810069  0.55232179  1
  S  S1315  1  0.47274399  0.69864194  0.55249796  1
  S  S1316  1  0.50954499  0.76901715  0.55305440  1
  S  S1317  1  0.54649509  0.83928600  0.55371758  1
  S  S1318  1  0.58364861  0.90941092  0.55432978  1
  S  S1319  1  0.62085168  0.97947099  0.55463229  1
  S  S1320  1  0.65810074  0.04948741  0.55461900  1
  S  S1321  1  0.69523071  0.11946631  0.55428496  1
  S  S1322  1  0.73225302  0.18946392  0.55374925  1
  S  S1323  1  0.76902957  0.25945832  0.55317857  1
  S  S1324  1  0.80555085  0.32943410  0.55275431  1
  S  S1325  1  0.84185312  0.39934915  0.55275132  1
  S  S1326  1  0.87803563  0.46913817  0.55318067  1
  S  S1327  1  0.91421155  0.53886227  0.55381359  1
  S  S1328  1  0.95051975  0.60862109  0.55461779  1
  S  S1329  1  0.98709309  0.67844966  0.55561215  1
  S  S1330  1  0.02389272  0.74836803  0.55687399  1
  S  S1331  1  0.06089453  0.81827024  0.55816292  1
  S  S1332  1  0.09802130  0.88815426  0.55913452  1
  S  S1333  1  0.13526216  0.95808810  0.55966845  1
  S  S1334  1  0.17253234  0.02804454  0.55968110  1
  S  S1335  1  0.20983003  0.09800542  0.55916262  1
  S  S1336  1  0.24708343  0.16806797  0.55816838  1
  S  S1337  1  0.28433165  0.23822278  0.55685098  1
  S  S1338  1  0.32153729  0.30863202  0.55561171  1
  S  S1339  1  0.35860712  0.37914161  0.55462942  1
  S  S1340  1  0.39550820  0.44975059  0.55386477  1
  S  S1341  1  0.43229052  0.52041044  0.55330598  1
  S  S1342  1  0.46907737  0.59109941  0.55309464  1
  S  S1343  1  0.50589103  0.66175775  0.55321659  1
  S  S1344  1  0.54274319  0.73224779  0.55364746  1
  S  S1345  1  0.57971724  0.80260748  0.55429011  1
  S  S1346  1  0.61682544  0.87279170  0.55496671  1
  S  S1347  1  0.65408888  0.94289816  0.55546961  1
  S  S1348  1  0.69136039  0.01291289  0.55561101  1
  S  S1349  1  0.72859039  0.08292477  0.55541506  1
  S  S1350  1  0.76570723  0.15293072  0.55494674  1
  S  S1351  1  0.80263007  0.22287075  0.55436627  1
  S  S1352  1  0.83931251  0.29279358  0.55381028  1
  S  S1353  1  0.87570405  0.36260533  0.55345310  1
  S  S1354  1  0.91193024  0.43234906  0.55336485  1
  S  S1355  1  0.94791453  0.50174599  0.65746610  1
  S  S1356  1  0.98425004  0.57132770  0.65792743  1
  S  S1357  1  0.02070773  0.64091415  0.65853848  1
  S  S1358  1  0.05737862  0.71059740  0.65937250  1
  S  S1359  1  0.09433792  0.78045332  0.66032102  1
  S  S1360  1  0.13151973  0.85047934  0.66128156  1
  S  S1361  1  0.16882961  0.92066389  0.66200489  1
  S  S1362  1  0.20622044  0.99091748  0.66229920  1
  S  S1363  1  0.24362004  0.06122286  0.66204965  1
  S  S1364  1  0.28098014  0.13152769  0.66131189  1
  S  S1365  1  0.31815141  0.20181616  0.66029585  1
  S  S1366  1  0.35515167  0.27209086  0.65930593  1
  S  S1367  1  0.39197781  0.34245403  0.65851527  1
  S  S1368  1  0.42866693  0.41291837  0.65792113  1
  S  S1369  1  0.46527681  0.48346666  0.65753890  1
  S  S1370  1  0.50179793  0.55395515  0.65743571  1
  S  S1371  1  0.53837164  0.62442313  0.65765487  1
  S  S1372  1  0.57507677  0.69481352  0.65815281  1
  S  S1373  1  0.61193126  0.76516382  0.65881028  1
  S  S1374  1  0.64892049  0.83540709  0.65961829  1
  S  S1375  1  0.68612901  0.90566798  0.66032198  1
  S  S1376  1  0.72346573  0.97593146  0.66074674  1
  S  S1377  1  0.76085312  0.04618349  0.66072837  1
  S  S1378  1  0.79817602  0.11634483  0.66029305  1
  S  S1379  1  0.83538572  0.18640850  0.65963501  1
  S  S1380  1  0.87236560  0.25632795  0.65890361  1
  S  S1381  1  0.90910608  0.32607614  0.65825015  1
  S  S1382  1  0.94557379  0.39569432  0.65777961  1
  S  S1383  1  0.98188559  0.46521627  0.65754926  1
  S  S1384  1  0.01818794  0.53471729  0.65754666  1
  S  S1385  1  0.05449662  0.60424965  0.65776454  1
  S  S1386  1  0.09095604  0.67386659  0.65822873  1
  S  S1387  1  0.12767496  0.74361040  0.65887455  1
  S  S1388  1  0.16459595  0.81350330  0.65961435  1
  S  S1389  1  0.20176587  0.88357378  0.66027016  1
  S  S1390  1  0.23905474  0.95375112  0.66072831  1
  S  S1391  1  0.27644001  0.02403561  0.66074827  1
  S  S1392  1  0.31377896  0.09431591  0.66034398  1
  S  S1393  1  0.35100570  0.16460736  0.65963692  1
  S  S1394  1  0.38802672  0.23486430  0.65884009  1
  S  S1395  1  0.42490480  0.30523747  0.65818575  1
  S  S1396  1  0.46165687  0.37566633  0.65769200  1
  S  S1397  1  0.49825778  0.44617138  0.65745873  1
  S  S1398  1  0.53478642  0.51667258  0.65754081  1
  S  S1399  1  0.57137606  0.58719101  0.65790893  1
  S  S1400  1  0.60804388  0.65763828  0.65849614  1
  S  S1401  1  0.64485720  0.72798572  0.65928184  1
  S  S1402  1  0.68182136  0.79823755  0.66027423  1
  S  S1403  1  0.71897375  0.86848694  0.66128334  1
  S  S1404  1  0.75631252  0.93874497  0.66203872  1
  S  S1405  1  0.79372663  0.00904095  0.66230422  1
  S  S1406  1  0.83113360  0.07928458  0.66203083  1
  S  S1407  1  0.86846257  0.14946024  0.66131075  1
  S  S1408  1  0.90567546  0.21947117  0.66034391  1
  S  S1409  1  0.94266208  0.28933434  0.65937612  1
  S  S1410  1  0.97935905  0.35903476  0.65854363  1
  S  S1411  1  0.01581323  0.42862558  0.65791643  1
  S  S1412  1  0.05215362  0.49819488  0.65744264  1
  S  S1413  1  0.08844996  0.56772891  0.65719901  1
  S  S1414  1  0.12477310  0.63728848  0.65729031  1
  S  S1415  1  0.16122010  0.70693214  0.65763859  1
  S  S1416  1  0.19790383  0.77676272  0.65821213  1
  S  S1417  1  0.23483717  0.84675636  0.65880722  1
  S  S1418  1  0.27201671  0.91686207  0.65928025  1
  S  S1419  1  0.30931627  0.98709477  0.65949533  1
  S  S1420  1  0.34665956  0.05733174  0.65937511  1
  S  S1421  1  0.38394648  0.12763042  0.65890482  1
  S  S1422  1  0.42104205  0.19788430  0.65826840  1
  S  S1423  1  0.45796371  0.26819492  0.65763179  1
  S  S1424  1  0.49469219  0.33853870  0.65717587  1
  S  S1425  1  0.53129153  0.40897206  0.65704712  1
  S  S1426  1  0.56780169  0.47942029  0.65723538  1
  S  S1427  1  0.60431632  0.54988777  0.65777274  1
  S  S1428  1  0.64097382  0.62033234  0.65853784  1
  S  S1429  1  0.67778675  0.69068352  0.65949482  1
  S  S1430  1  0.71470737  0.76094629  0.66073066  1
  S  S1431  1  0.75184700  0.83117354  0.66200680  1
  S  S1432  1  0.78914492  0.90143719  0.66301013  1
  S  S1433  1  0.82658850  0.97173616  0.66355271  1
  S  S1434  1  0.86403027  0.04201808  0.66355570  1
  S  S1435  1  0.90143422  0.11226758  0.66303563  1
  S  S1436  1  0.93876548  0.18240148  0.66205207  1
  S  S1437  1  0.97595384  0.25240708  0.66075234  1
  S  S1438  1  0.01289670  0.32222171  0.65949959  1
  S  S1439  1  0.04959162  0.39195948  0.65850198  1
  S  S1440  1  0.08604781  0.46162402  0.65766046  1
  S  S1441  1  0.12237766  0.53123799  0.65699308  1
  S  S1442  1  0.15867875  0.60082020  0.65653277  1
  S  S1443  1  0.19498104  0.67045527  0.65652845  1
  S  S1444  1  0.23144293  0.74023099  0.65695500  1
  S  S1445  1  0.26817825  0.81015711  0.65757381  1
  S  S1446  1  0.30518753  0.88025359  0.65815319  1
  S  S1447  1  0.34236379  0.95039906  0.65849862  1
  S  S1448  1  0.37966710  0.02063517  0.65854128  1
  S  S1449  1  0.41695614  0.09089224  0.65825015  1
  S  S1450  1  0.45416047  0.16116868  0.65770001  1
  S  S1451  1  0.49112092  0.23142112  0.65704293  1
  S  S1452  1  0.52788017  0.30167372  0.65650811  1
  S  S1453  1  0.56444170  0.37195069  0.65631228  1
  S  S1454  1  0.60089319  0.44227280  0.65660468  1
  S  S1455  1  0.63735925  0.51265556  0.65733367  1
  S  S1456  1  0.67393921  0.58304218  0.65824551  1
  S  S1457  1  0.71067797  0.65333909  0.65937237  1
  S  S1458  1  0.74760449  0.72355875  0.66074757  1
  S  S1459  1  0.78470691  0.79377912  0.66230060  1
  S  S1460  1  0.82201223  0.86405460  0.66355004  1
  S  S1461  1  0.85940942  0.93433234  0.66435399  1
  S  S1462  1  0.89687331  0.00463897  0.66465064  1
  S  S1463  1  0.93433583  0.07491583  0.66436009  1
  S  S1464  1  0.97175131  0.14514350  0.66355487  1
  S  S1465  1  0.00907005  0.21530154  0.66230473  1
  S  S1466  1  0.04623691  0.28530109  0.66073549  1
  S  S1467  1  0.08312506  0.35514722  0.65928521  1
  S  S1468  1  0.11973251  0.42492236  0.65815625  1
  S  S1469  1  0.15620683  0.49468298  0.65711452  1
  S  S1470  1  0.19253667  0.56440738  0.65621615  1
  S  S1471  1  0.22878420  0.63409612  0.65574472  1
  S  S1472  1  0.26510498  0.70383137  0.65584587  1
  S  S1473  1  0.30164442  0.77372654  0.65641191  1
  S  S1474  1  0.33847761  0.84377999  0.65711426  1
  S  S1475  1  0.37557815  0.91394349  0.65765925  1
  S  S1476  1  0.41280960  0.98418240  0.65791439  1
  S  S1477  1  0.45011137  0.05442567  0.65777878  1
  S  S1478  1  0.48734345  0.12470212  0.65734092  1
  S  S1479  1  0.52441491  0.19493605  0.65662840  1
  S  S1480  1  0.56120756  0.26511148  0.65595688  1
  S  S1481  1  0.59773834  0.33523847  0.65562875  1
  S  S1482  1  0.63414741  0.40539612  0.65585166  1
  S  S1483  1  0.67052131  0.47558839  0.65662058  1
  S  S1484  1  0.70701127  0.54583997  0.65769460  1
  S  S1485  1  0.74368790  0.61605258  0.65890113  1
  S  S1486  1  0.78054240  0.68621864  0.66034054  1
  S  S1487  1  0.81760958  0.75637580  0.66204908  1
  S  S1488  1  0.85486386  0.82661681  0.66355373  1
  S  S1489  1  0.89224204  0.89689019  0.66464346  1
  S  S1490  1  0.92968962  0.96718487  0.66522291  1
  S  S1491  1  0.96718570  0.03749428  0.66522622  1
  S  S1492  1  0.00464561  0.10776037  0.66464301  1
  S  S1493  1  0.04203798  0.17799158  0.66355220  1
  S  S1494  1  0.07932184  0.24815801  0.66201004  1
  S  S1495  1  0.11641087  0.31818263  0.66027525  1
  S  S1496  1  0.15322716  0.38806794  0.65881059  1
  S  S1497  1  0.18982390  0.45800426  0.65757457  1
  S  S1498  1  0.22625394  0.52789985  0.65641039  1
  S  S1499  1  0.26253519  0.59772305  0.65551260  1
  S  S1500  1  0.29879267  0.66755367  0.65523387  1
  S  S1501  1  0.33518857  0.73744570  0.65551571  1
  S  S1502  1  0.37187395  0.80744723  0.65621946  1
  S  S1503  1  0.40886538  0.87761224  0.65699467  1
  S  S1504  1  0.44604408  0.94784175  0.65744182  1
  S  S1505  1  0.48332601  0.01811335  0.65754748  1
  S  S1506  1  0.52057809  0.08838266  0.65724294  1
  S  S1507  1  0.55772775  0.15862395  0.65661257  1
  S  S1508  1  0.59461128  0.22876154  0.65585840  1
  S  S1509  1  0.63121446  0.29880684  0.65535104  1
  S  S1510  1  0.66759099  0.36880010  0.65534863  1
  S  S1511  1  0.70390590  0.43880285  0.65595103  1
  S  S1512  1  0.74030254  0.50888348  0.65703759  1
  S  S1513  1  0.77684519  0.57895865  0.65826516  1
  S  S1514  1  0.81360614  0.64899210  0.65963412  1
  S  S1515  1  0.85055167  0.71901434  0.66131024  1
  S  S1516  1  0.88774193  0.78917533  0.66303569  1
  S  S1517  1  0.92508992  0.85942514  0.66436104  1
  S  S1518  1  0.96250775  0.92969382  0.66522647  1
  S  S1519  1  0.99999895  0.99999958  0.66553196  1
  S  S1520  1  0.03749159  0.07030969  0.66522323  1
  S  S1521  1  0.07491736  0.14059041  0.66435507  1
  S  S1522  1  0.11228438  0.21085607  0.66301248  1
  S  S1523  1  0.14950447  0.28102735  0.66128373  1
  S  S1524  1  0.18647815  0.35107778  0.65961632  1
  S  S1525  1  0.22321572  0.42112309  0.65821207  1
  S  S1526  1  0.25974600  0.49119281  0.65695373  1
  S  S1527  1  0.29614662  0.56125411  0.65584371  1
  S  S1528  1  0.33242507  0.63122091  0.65523304  1
  S  S1529  1  0.36876121  0.70118880  0.65523546  1
  S  S1530  1  0.40531705  0.77120052  0.65574885  1
  S  S1531  1  0.44214960  0.84130967  0.65653633  1
  S  S1532  1  0.47928585  0.91154304  0.65719990  1
  S  S1533  1  0.51653046  0.98181063  0.65754526  1
  S  S1534  1  0.55382531  0.05208779  0.65746509  1
  S  S1535  1  0.59102675  0.12232403  0.65705316  1
  S  S1536  1  0.62805204  0.19249991  0.65631642  1
  S  S1537  1  0.66477104  0.26251395  0.65563034  1
  S  S1538  1  0.70120884  0.33242754  0.65534965  1
  S  S1539  1  0.73750290  0.40227779  0.65562678  1
  S  S1540  1  0.77379641  0.47212884  0.65650531  1
  S  S1541  1  0.81023341  0.54203848  0.65763039  1
  S  S1542  1  0.84683971  0.61197001  0.65883984  1
  S  S1543  1  0.88366650  0.68184044  0.66029585  1
  S  S1544  1  0.92072526  0.75185530  0.66203370  1
  S  S1545  1  0.95798999  0.82201595  0.66355773  1
  S  S1546  1  0.99536549  0.89223565  0.66465083  1
  S  S1547  1  0.03281519  0.96250299  0.66522208  1
  S  S1548  1  0.07030321  0.03281016  0.66522660  1
  S  S1549  1  0.10775786  0.10312379  0.66465147  1
  S  S1550  1  0.14513722  0.17340914  0.66355423  1
  S  S1551  1  0.18242059  0.24368702  0.66204012  1
  S  S1552  1  0.21952891  0.31386950  0.66032077  1
  S  S1553  1  0.25637061  0.38404946  0.65887360  1
  S  S1554  1  0.29304413  0.45427008  0.65763598  1
  S  S1555  1  0.32952094  0.52450761  0.65652553  1
  S  S1556  1  0.36588316  0.59467287  0.65574339  1
  S  S1557  1  0.40225770  0.66479879  0.65551527  1
  S  S1558  1  0.43873249  0.73488411  0.65584899  1
  S  S1559  1  0.47548584  0.80501062  0.65653214  1
  S  S1560  1  0.51252598  0.87522101  0.65729247  1
  S  S1561  1  0.54975835  0.94550119  0.65776454  1
  S  S1562  1  0.58707735  0.01575194  0.65792622  1
  S  S1563  1  0.62432914  0.08599647  0.65769613  1
  S  S1564  1  0.66146045  0.15616292  0.65717759  1
  S  S1565  1  0.69833032  0.22622044  0.65650753  1
  S  S1566  1  0.73489632  0.29611387  0.65595402  1
  S  S1567  1  0.77125113  0.36587041  0.65585408  1
  S  S1568  1  0.80751344  0.43557174  0.65631311  1
  S  S1569  1  0.84384785  0.50531312  0.65717739  1
  S  S1570  1  0.88033354  0.57509232  0.65818797  1
  S  S1571  1  0.91693918  0.64483949  0.65930841  1
  S  S1572  1  0.95382501  0.71467200  0.66073390  1
  S  S1573  1  0.99096839  0.78468687  0.66230842  1
  S  S1574  1  0.02827075  0.85485087  0.66355442  1
  S  S1575  1  0.06566977  0.92507351  0.66435360  1
  S  S1576  1  0.10310810  0.99534580  0.66464180  1
  S  S1577  1  0.14057065  0.06565808  0.66435952  1
  S  S1578  1  0.17797515  0.13596438  0.66355620  1
  S  S1579  1  0.21530016  0.20626993  0.66230664  1
  S  S1580  1  0.25245236  0.27653201  0.66074878  1
  S  S1581  1  0.28938645  0.34676918  0.65937027  1
  S  S1582  1  0.32611412  0.41707613  0.65822491  1
  S  S1583  1  0.36269066  0.48747147  0.65728637  1
  S  S1584  1  0.39916008  0.55784681  0.65652985  1
  S  S1585  1  0.43557633  0.62812057  0.65621603  1
  S  S1586  1  0.47208842  0.69834823  0.65641312  1
  S  S1587  1  0.50879913  0.76855086  0.65695818  1
  S  S1588  1  0.54572515  0.83877643  0.65764094  1
  S  S1589  1  0.58292095  0.90904285  0.65822949  1
  S  S1590  1  0.62021179  0.97929476  0.65853721  1
  S  S1591  1  0.65754008  0.04953098  0.65851763  1
  S  S1592  1  0.69475824  0.11967768  0.65818626  1
  S  S1593  1  0.73180393  0.18978306  0.65763077  1
  S  S1594  1  0.76858158  0.25971749  0.65704007  1
  S  S1595  1  0.80506970  0.32949938  0.65662445  1
  S  S1596  1  0.84138477  0.39912376  0.65660900  1
  S  S1597  1  0.87768307  0.46871823  0.65705164  1
  S  S1598  1  0.91400980  0.53834385  0.65769677  1
  S  S1599  1  0.95047573  0.60801439  0.65852023  1
  S  S1600  1  0.98715873  0.67773698  0.65949857  1
  S  S1601  1  0.02407661  0.74753192  0.66074992  1
  S  S1602  1  0.06126371  0.81756348  0.66204037  1
  S  S1603  1  0.09856808  0.88770156  0.66301077  1
  S  S1604  1  0.13594613  0.95794953  0.66354883  1
  S  S1605  1  0.17337988  0.02823772  0.66355169  1
  S  S1606  1  0.21081778  0.09855632  0.66303416  1
  S  S1607  1  0.24813423  0.16885937  0.66203230  1
  S  S1608  1  0.28531519  0.23914167  0.66073174  1
  S  S1609  1  0.32225072  0.30941237  0.65949546  1
  S  S1610  1  0.35907310  0.37978463  0.65853384  1
  S  S1611  1  0.39573637  0.45023835  0.65775875  1
  S  S1612  1  0.43225616  0.52071161  0.65719342  1
  S  S1613  1  0.46874943  0.59113271  0.65698939  1
  S  S1614  1  0.50530902  0.66152016  0.65711267  1
  S  S1615  1  0.54199004  0.73181942  0.65757533  1
  S  S1616  1  0.57887180  0.80209423  0.65821506  1
  S  S1617  1  0.61594783  0.87232601  0.65887684  1
  S  S1618  1  0.65322837  0.94262497  0.65937193  1
  S  S1619  1  0.69058422  0.01284708  0.65949463  1
  S  S1620  1  0.72790284  0.08307050  0.65930409  1
  S  S1621  1  0.76513068  0.15317364  0.65883825  1
  S  S1622  1  0.80211368  0.22317341  0.65826687  1
  S  S1623  1  0.83883165  0.29300894  0.65769842  1
  S  S1624  1  0.87530123  0.36265847  0.65733888  1
  S  S1625  1  0.91162131  0.43221020  0.65724231  1
